Proj Title=Tsho Rolpa GLOF Assessment
Current Plan=p02
Default Exp/Contr=0.3,0.1
SI Units
Geom File=g01
Unsteady File=u01
Unsteady File=u02
Unsteady File=u03
Plan File=p01
Plan File=p02
Plan File=p03
Plan File=p04
Plan File=p05
Y Axis Title=Elevation
X Axis Title(PF)=Main Channel Distance
X Axis Title(XS)=Station
BEGIN DESCRIPTION:
Risk Assessment Of TSHO-ROLPA Glacier Lake & What Ifs Situation-
END DESCRIPTION:
DSS Start Date=
DSS Start Time=
DSS End Date=
DSS End Time=
DSS File=dss
DSS Export Filename=
DSS Export Rating Curves= 0 
DSS Export Rating Curve Sorted= 0 
DSS Export Volume Flow Curves= 0 
DXF Filename=
DXF OffsetX= 0 
DXF OffsetY= 0 
DXF ScaleX= 1 
DXF ScaleY= 10 
GIS Export Profiles= 0 
