Geom Title=GLOF_Geometry
Program Version=6.70
Viewing Rectangle= 431711.435893984 , 451348.036817387 , 3088733.92503794 , 3079328.83173399 

Storage Area=Perimeter 1     ,,
Storage Area Surface Line= 13 
446798.5490038263084270.52770182                
446788.7778975393082055.01048712                
 444873.964763553083149.23181822                
442886.3960753223083357.87934964                
439962.3757426183085277.48553502                
438358.8490417683085440.67064404                
433044.6493089183085590.87762951                
433056.9608605913087806.43741937                
438370.1827786723087656.21660664                
439973.4139555583087493.02720284                
442896.8889952923085573.40876735                
444884.0917183583085364.75625877                
446798.5490038263084270.52770182                
Storage Area Type= 1 
Storage Area Area=
Storage Area Min Elev=
Storage Area Is2D=-1
Storage Area Point Generation Data=,,200,200
Storage Area 2D Points= 720 
433144.6493089183087706.43741937433344.6493089183087706.43741937
433544.6493089183087706.43741937433744.6493089183087706.43741937
433944.6493089183087706.43741937434144.6493089183087706.43741937
434344.6493089183087706.43741937434544.6493089183087706.43741937
434744.6493089183087706.43741937433144.6493089183087506.43741937
433344.6493089183087506.43741937433544.6493089183087506.43741937
433744.6493089183087506.43741937433944.6493089183087506.43741937
434144.6493089183087506.43741937434344.6493089183087506.43741937
434544.6493089183087506.43741937434744.6493089183087506.43741937
434944.6493089183087506.43741937435144.6493089183087506.43741937
435344.6493089183087506.43741937435544.6493089183087506.43741937
435744.6493089183087506.43741937435944.6493089183087506.43741937
436144.6493089183087506.43741937436344.6493089183087506.43741937
436544.6493089183087506.43741937436744.6493089183087506.43741937
436944.6493089183087506.43741937437144.6493089183087506.43741937
437344.6493089183087506.43741937437544.6493089183087506.43741937
437744.6493089183087506.43741937437944.6493089183087506.43741937
438144.6493089183087506.43741937438344.6493089183087506.43741937
438544.6493089183087506.43741937438744.6493089183087506.43741937
438944.6493089183087506.43741937439144.6493089183087506.43741937
439344.6493089183087506.43741937433144.6493089183087306.43741937
433344.6493089183087306.43741937433544.6493089183087306.43741937
433744.6493089183087306.43741937433944.6493089183087306.43741937
434144.6493089183087306.43741937434344.6493089183087306.43741937
434544.6493089183087306.43741937434744.6493089183087306.43741937
434944.6493089183087306.43741937435144.6493089183087306.43741937
435344.6493089183087306.43741937435544.6493089183087306.43741937
435744.6493089183087306.43741937435944.6493089183087306.43741937
436144.6493089183087306.43741937436344.6493089183087306.43741937
436544.6493089183087306.43741937436744.6493089183087306.43741937
436944.6493089183087306.43741937437144.6493089183087306.43741937
437344.6493089183087306.43741937437544.6493089183087306.43741937
437744.6493089183087306.43741937437944.6493089183087306.43741937
438144.6493089183087306.43741937438344.6493089183087306.43741937
438544.6493089183087306.43741937438744.6493089183087306.43741937
438944.6493089183087306.43741937439144.6493089183087306.43741937
439344.6493089183087306.43741937439544.6493089183087306.43741937
439744.6493089183087306.43741937439944.6493089183087306.43741937
440144.6493089183087306.43741937433144.6493089183087106.43741937
433344.6493089183087106.43741937433544.6493089183087106.43741937
433744.6493089183087106.43741937433944.6493089183087106.43741937
434144.6493089183087106.43741937434344.6493089183087106.43741937
434544.6493089183087106.43741937434744.6493089183087106.43741937
434944.6493089183087106.43741937435144.6493089183087106.43741937
435344.6493089183087106.43741937435544.6493089183087106.43741937
435744.6493089183087106.43741937435944.6493089183087106.43741937
436144.6493089183087106.43741937436344.6493089183087106.43741937
436544.6493089183087106.43741937436744.6493089183087106.43741937
436944.6493089183087106.43741937437144.6493089183087106.43741937
437344.6493089183087106.43741937437544.6493089183087106.43741937
437744.6493089183087106.43741937437944.6493089183087106.43741937
438144.6493089183087106.43741937438344.6493089183087106.43741937
438544.6493089183087106.43741937438744.6493089183087106.43741937
438944.6493089183087106.43741937439144.6493089183087106.43741937
439344.6493089183087106.43741937439544.6493089183087106.43741937
439744.6493089183087106.43741937439944.6493089183087106.43741937
440144.6493089183087106.43741937440344.6493089183087106.43741937
433144.6493089183086906.43741937433344.6493089183086906.43741937
433544.6493089183086906.43741937433744.6493089183086906.43741937
433944.6493089183086906.43741937434144.6493089183086906.43741937
434344.6493089183086906.43741937434544.6493089183086906.43741937
434744.6493089183086906.43741937434944.6493089183086906.43741937
435144.6493089183086906.43741937435344.6493089183086906.43741937
435544.6493089183086906.43741937435744.6493089183086906.43741937
435944.6493089183086906.43741937436144.6493089183086906.43741937
436344.6493089183086906.43741937436544.6493089183086906.43741937
436744.6493089183086906.43741937436944.6493089183086906.43741937
437144.6493089183086906.43741937437344.6493089183086906.43741937
437544.6493089183086906.43741937437744.6493089183086906.43741937
437944.6493089183086906.43741937438144.6493089183086906.43741937
438344.6493089183086906.43741937438544.6493089183086906.43741937
438744.6493089183086906.43741937438944.6493089183086906.43741937
439144.6493089183086906.43741937439344.6493089183086906.43741937
439544.6493089183086906.43741937439744.6493089183086906.43741937
439944.6493089183086906.43741937440144.6493089183086906.43741937
440344.6493089183086906.43741937440544.6493089183086906.43741937
440744.6493089183086906.43741937433144.6493089183086706.43741937
433344.6493089183086706.43741937433544.6493089183086706.43741937
433744.6493089183086706.43741937433944.6493089183086706.43741937
434144.6493089183086706.43741937434344.6493089183086706.43741937
434544.6493089183086706.43741937434744.6493089183086706.43741937
434944.6493089183086706.43741937435144.6493089183086706.43741937
435344.6493089183086706.43741937435544.6493089183086706.43741937
435744.6493089183086706.43741937435944.6493089183086706.43741937
436144.6493089183086706.43741937436344.6493089183086706.43741937
436544.6493089183086706.43741937436744.6493089183086706.43741937
436944.6493089183086706.43741937437144.6493089183086706.43741937
437344.6493089183086706.43741937437544.6493089183086706.43741937
437744.6493089183086706.43741937437944.6493089183086706.43741937
438144.6493089183086706.43741937438344.6493089183086706.43741937
438544.6493089183086706.43741937438744.6493089183086706.43741937
438944.6493089183086706.43741937439144.6493089183086706.43741937
439344.6493089183086706.43741937439544.6493089183086706.43741937
439744.6493089183086706.43741937439944.6493089183086706.43741937
440144.6493089183086706.43741937440344.6493089183086706.43741937
440544.6493089183086706.43741937440744.6493089183086706.43741937
440944.6493089183086706.43741937433144.6493089183086506.43741937
433344.6493089183086506.43741937433544.6493089183086506.43741937
433744.6493089183086506.43741937433944.6493089183086506.43741937
434144.6493089183086506.43741937434344.6493089183086506.43741937
434544.6493089183086506.43741937434744.6493089183086506.43741937
434944.6493089183086506.43741937435144.6493089183086506.43741937
435344.6493089183086506.43741937435544.6493089183086506.43741937
435744.6493089183086506.43741937435944.6493089183086506.43741937
436144.6493089183086506.43741937436344.6493089183086506.43741937
436544.6493089183086506.43741937436744.6493089183086506.43741937
436944.6493089183086506.43741937437144.6493089183086506.43741937
437344.6493089183086506.43741937437544.6493089183086506.43741937
437744.6493089183086506.43741937437944.6493089183086506.43741937
438144.6493089183086506.43741937438344.6493089183086506.43741937
438544.6493089183086506.43741937438744.6493089183086506.43741937
438944.6493089183086506.43741937439144.6493089183086506.43741937
439344.6493089183086506.43741937439544.6493089183086506.43741937
439744.6493089183086506.43741937439944.6493089183086506.43741937
440144.6493089183086506.43741937440344.6493089183086506.43741937
440544.6493089183086506.43741937440744.6493089183086506.43741937
440944.6493089183086506.43741937441144.6493089183086506.43741937
441344.6493089183086506.43741937433144.6493089183086306.43741937
433344.6493089183086306.43741937433544.6493089183086306.43741937
433744.6493089183086306.43741937433944.6493089183086306.43741937
434144.6493089183086306.43741937434344.6493089183086306.43741937
434544.6493089183086306.43741937434744.6493089183086306.43741937
434944.6493089183086306.43741937435144.6493089183086306.43741937
435344.6493089183086306.43741937435544.6493089183086306.43741937
435744.6493089183086306.43741937435944.6493089183086306.43741937
436144.6493089183086306.43741937436344.6493089183086306.43741937
436544.6493089183086306.43741937436744.6493089183086306.43741937
436944.6493089183086306.43741937437144.6493089183086306.43741937
437344.6493089183086306.43741937437544.6493089183086306.43741937
437744.6493089183086306.43741937437944.6493089183086306.43741937
438144.6493089183086306.43741937438344.6493089183086306.43741937
438544.6493089183086306.43741937438744.6493089183086306.43741937
438944.6493089183086306.43741937439144.6493089183086306.43741937
439344.6493089183086306.43741937439544.6493089183086306.43741937
439744.6493089183086306.43741937439944.6493089183086306.43741937
440144.6493089183086306.43741937440344.6493089183086306.43741937
440544.6493089183086306.43741937440744.6493089183086306.43741937
440944.6493089183086306.43741937441144.6493089183086306.43741937
441344.6493089183086306.43741937441544.6493089183086306.43741937
433144.6493089183086106.43741937433344.6493089183086106.43741937
433544.6493089183086106.43741937433744.6493089183086106.43741937
433944.6493089183086106.43741937434144.6493089183086106.43741937
434344.6493089183086106.43741937434544.6493089183086106.43741937
434744.6493089183086106.43741937434944.6493089183086106.43741937
435144.6493089183086106.43741937435344.6493089183086106.43741937
435544.6493089183086106.43741937435744.6493089183086106.43741937
435944.6493089183086106.43741937436144.6493089183086106.43741937
436344.6493089183086106.43741937436544.6493089183086106.43741937
436744.6493089183086106.43741937436944.6493089183086106.43741937
437144.6493089183086106.43741937437344.6493089183086106.43741937
437544.6493089183086106.43741937437744.6493089183086106.43741937
437944.6493089183086106.43741937438144.6493089183086106.43741937
438344.6493089183086106.43741937438544.6493089183086106.43741937
438744.6493089183086106.43741937438944.6493089183086106.43741937
439144.6493089183086106.43741937439344.6493089183086106.43741937
439544.6493089183086106.43741937439744.6493089183086106.43741937
439944.6493089183086106.43741937440144.6493089183086106.43741937
440344.6493089183086106.43741937440544.6493089183086106.43741937
440744.6493089183086106.43741937440944.6493089183086106.43741937
441144.6493089183086106.43741937441344.6493089183086106.43741937
441544.6493089183086106.43741937441744.6493089183086106.43741937
441944.6493089183086106.43741937433144.6493089183085906.43741937
433344.6493089183085906.43741937433544.6493089183085906.43741937
433744.6493089183085906.43741937433944.6493089183085906.43741937
434144.6493089183085906.43741937434344.6493089183085906.43741937
434544.6493089183085906.43741937434744.6493089183085906.43741937
434944.6493089183085906.43741937435144.6493089183085906.43741937
435344.6493089183085906.43741937435544.6493089183085906.43741937
435744.6493089183085906.43741937435944.6493089183085906.43741937
436144.6493089183085906.43741937436344.6493089183085906.43741937
436544.6493089183085906.43741937436744.6493089183085906.43741937
436944.6493089183085906.43741937437144.6493089183085906.43741937
437344.6493089183085906.43741937437544.6493089183085906.43741937
437744.6493089183085906.43741937437944.6493089183085906.43741937
438144.6493089183085906.43741937438344.6493089183085906.43741937
438544.6493089183085906.43741937438744.6493089183085906.43741937
438944.6493089183085906.43741937439144.6493089183085906.43741937
439344.6493089183085906.43741937439544.6493089183085906.43741937
439744.6493089183085906.43741937439944.6493089183085906.43741937
440144.6493089183085906.43741937440344.6493089183085906.43741937
440544.6493089183085906.43741937440744.6493089183085906.43741937
440944.6493089183085906.43741937441144.6493089183085906.43741937
441344.6493089183085906.43741937441544.6493089183085906.43741937
441744.6493089183085906.43741937441944.6493089183085906.43741937
442144.6493089183085906.43741937433144.6493089183085706.43741937
433344.6493089183085706.43741937433544.6493089183085706.43741937
433744.6493089183085706.43741937433944.6493089183085706.43741937
434144.6493089183085706.43741937434344.6493089183085706.43741937
434544.6493089183085706.43741937434744.6493089183085706.43741937
434944.6493089183085706.43741937435144.6493089183085706.43741937
435344.6493089183085706.43741937435544.6493089183085706.43741937
435744.6493089183085706.43741937435944.6493089183085706.43741937
436144.6493089183085706.43741937436344.6493089183085706.43741937
436544.6493089183085706.43741937436744.6493089183085706.43741937
436944.6493089183085706.43741937437144.6493089183085706.43741937
437344.6493089183085706.43741937437544.6493089183085706.43741937
437744.6493089183085706.43741937437944.6493089183085706.43741937
438144.6493089183085706.43741937438344.6493089183085706.43741937
438544.6493089183085706.43741937438744.6493089183085706.43741937
438944.6493089183085706.43741937439144.6493089183085706.43741937
439344.6493089183085706.43741937439544.6493089183085706.43741937
439744.6493089183085706.43741937439944.6493089183085706.43741937
440144.6493089183085706.43741937440344.6493089183085706.43741937
440544.6493089183085706.43741937440744.6493089183085706.43741937
440944.6493089183085706.43741937441144.6493089183085706.43741937
441344.6493089183085706.43741937441544.6493089183085706.43741937
441744.6493089183085706.43741937441944.6493089183085706.43741937
442144.6493089183085706.43741937442344.6493089183085706.43741937
442544.6493089183085706.43741937437944.6493089183085506.43741937
438144.6493089183085506.43741937438344.6493089183085506.43741937
438544.6493089183085506.43741937438744.6493089183085506.43741937
438944.6493089183085506.43741937439144.6493089183085506.43741937
439344.6493089183085506.43741937439544.6493089183085506.43741937
439744.6493089183085506.43741937439944.6493089183085506.43741937
440144.6493089183085506.43741937440344.6493089183085506.43741937
440544.6493089183085506.43741937440744.6493089183085506.43741937
440944.6493089183085506.43741937441144.6493089183085506.43741937
441344.6493089183085506.43741937441544.6493089183085506.43741937
441744.6493089183085506.43741937441944.6493089183085506.43741937
442144.6493089183085506.43741937442344.6493089183085506.43741937
442544.6493089183085506.43741937442744.6493089183085506.43741937
442944.6493089183085506.43741937440144.6493089183085306.43741937
440344.6493089183085306.43741937440544.6493089183085306.43741937
440744.6493089183085306.43741937440944.6493089183085306.43741937
441144.6493089183085306.43741937441344.6493089183085306.43741937
441544.6493089183085306.43741937441744.6493089183085306.43741937
441944.6493089183085306.43741937442144.6493089183085306.43741937
442344.6493089183085306.43741937442544.6493089183085306.43741937
442744.6493089183085306.43741937442944.6493089183085306.43741937
443144.6493089183085306.43741937443344.6493089183085306.43741937
443544.6493089183085306.43741937443744.6493089183085306.43741937
443944.6493089183085306.43741937444144.6493089183085306.43741937
444344.6493089183085306.43741937444544.6493089183085306.43741937
444744.6493089183085306.43741937440344.6493089183085106.43741937
440544.6493089183085106.43741937440744.6493089183085106.43741937
440944.6493089183085106.43741937441144.6493089183085106.43741937
441344.6493089183085106.43741937441544.6493089183085106.43741937
441744.6493089183085106.43741937441944.6493089183085106.43741937
442144.6493089183085106.43741937442344.6493089183085106.43741937
442544.6493089183085106.43741937442744.6493089183085106.43741937
442944.6493089183085106.43741937443144.6493089183085106.43741937
443344.6493089183085106.43741937443544.6493089183085106.43741937
443744.6493089183085106.43741937443944.6493089183085106.43741937
444144.6493089183085106.43741937444344.6493089183085106.43741937
444544.6493089183085106.43741937444744.6493089183085106.43741937
444944.6493089183085106.43741937445144.6493089183085106.43741937
440744.6493089183084906.43741937440944.6493089183084906.43741937
441144.6493089183084906.43741937441344.6493089183084906.43741937
441544.6493089183084906.43741937441744.6493089183084906.43741937
441944.6493089183084906.43741937442144.6493089183084906.43741937
442344.6493089183084906.43741937442544.6493089183084906.43741937
442744.6493089183084906.43741937442944.6493089183084906.43741937
443144.6493089183084906.43741937443344.6493089183084906.43741937
443544.6493089183084906.43741937443744.6493089183084906.43741937
443944.6493089183084906.43741937444144.6493089183084906.43741937
444344.6493089183084906.43741937444544.6493089183084906.43741937
444744.6493089183084906.43741937444944.6493089183084906.43741937
445144.6493089183084906.43741937445344.6493089183084906.43741937
445544.6493089183084906.43741937440944.6493089183084706.43741937
441144.6493089183084706.43741937441344.6493089183084706.43741937
441544.6493089183084706.43741937441744.6493089183084706.43741937
441944.6493089183084706.43741937442144.6493089183084706.43741937
442344.6493089183084706.43741937442544.6493089183084706.43741937
442744.6493089183084706.43741937442944.6493089183084706.43741937
443144.6493089183084706.43741937443344.6493089183084706.43741937
443544.6493089183084706.43741937443744.6493089183084706.43741937
443944.6493089183084706.43741937444144.6493089183084706.43741937
444344.6493089183084706.43741937444544.6493089183084706.43741937
444744.6493089183084706.43741937444944.6493089183084706.43741937
445144.6493089183084706.43741937445344.6493089183084706.43741937
445544.6493089183084706.43741937445744.6493089183084706.43741937
441344.6493089183084506.43741937441544.6493089183084506.43741937
441744.6493089183084506.43741937441944.6493089183084506.43741937
442144.6493089183084506.43741937442344.6493089183084506.43741937
442544.6493089183084506.43741937442744.6493089183084506.43741937
442944.6493089183084506.43741937443144.6493089183084506.43741937
443344.6493089183084506.43741937443544.6493089183084506.43741937
443744.6493089183084506.43741937443944.6493089183084506.43741937
444144.6493089183084506.43741937444344.6493089183084506.43741937
444544.6493089183084506.43741937444744.6493089183084506.43741937
444944.6493089183084506.43741937445144.6493089183084506.43741937
445344.6493089183084506.43741937445544.6493089183084506.43741937
445744.6493089183084506.43741937445944.6493089183084506.43741937
446144.6493089183084506.43741937441544.6493089183084306.43741937
441744.6493089183084306.43741937441944.6493089183084306.43741937
442144.6493089183084306.43741937442344.6493089183084306.43741937
442544.6493089183084306.43741937442744.6493089183084306.43741937
442944.6493089183084306.43741937443144.6493089183084306.43741937
443344.6493089183084306.43741937443544.6493089183084306.43741937
443744.6493089183084306.43741937443944.6493089183084306.43741937
444144.6493089183084306.43741937444344.6493089183084306.43741937
444544.6493089183084306.43741937444744.6493089183084306.43741937
444944.6493089183084306.43741937445144.6493089183084306.43741937
445344.6493089183084306.43741937445544.6493089183084306.43741937
445744.6493089183084306.43741937445944.6493089183084306.43741937
446144.6493089183084306.43741937446344.6493089183084306.43741937
446544.6493089183084306.43741937441944.6493089183084106.43741937
442144.6493089183084106.43741937442344.6493089183084106.43741937
442544.6493089183084106.43741937442744.6493089183084106.43741937
442944.6493089183084106.43741937443144.6493089183084106.43741937
443344.6493089183084106.43741937443544.6493089183084106.43741937
443744.6493089183084106.43741937443944.6493089183084106.43741937
444144.6493089183084106.43741937444344.6493089183084106.43741937
444544.6493089183084106.43741937444744.6493089183084106.43741937
444944.6493089183084106.43741937445144.6493089183084106.43741937
445344.6493089183084106.43741937445544.6493089183084106.43741937
445744.6493089183084106.43741937445944.6493089183084106.43741937
446144.6493089183084106.43741937446344.6493089183084106.43741937
446544.6493089183084106.43741937446744.6493089183084106.43741937
442144.6493089183083906.43741937442344.6493089183083906.43741937
442544.6493089183083906.43741937442744.6493089183083906.43741937
442944.6493089183083906.43741937443144.6493089183083906.43741937
443344.6493089183083906.43741937443544.6493089183083906.43741937
443744.6493089183083906.43741937443944.6493089183083906.43741937
444144.6493089183083906.43741937444344.6493089183083906.43741937
444544.6493089183083906.43741937444744.6493089183083906.43741937
444944.6493089183083906.43741937445144.6493089183083906.43741937
445344.6493089183083906.43741937445544.6493089183083906.43741937
445744.6493089183083906.43741937445944.6493089183083906.43741937
446144.6493089183083906.43741937446344.6493089183083906.43741937
446544.6493089183083906.43741937446744.6493089183083906.43741937
442544.6493089183083706.43741937442744.6493089183083706.43741937
442944.6493089183083706.43741937443144.6493089183083706.43741937
443344.6493089183083706.43741937443544.6493089183083706.43741937
443744.6493089183083706.43741937443944.6493089183083706.43741937
444144.6493089183083706.43741937444344.6493089183083706.43741937
444544.6493089183083706.43741937444744.6493089183083706.43741937
444944.6493089183083706.43741937445144.6493089183083706.43741937
445344.6493089183083706.43741937445544.6493089183083706.43741937
445744.6493089183083706.43741937445944.6493089183083706.43741937
446144.6493089183083706.43741937446344.6493089183083706.43741937
446544.6493089183083706.43741937446744.6493089183083706.43741937
442944.6493089183083506.43741937443144.6493089183083506.43741937
443344.6493089183083506.43741937443544.6493089183083506.43741937
443744.6493089183083506.43741937443944.6493089183083506.43741937
444144.6493089183083506.43741937444344.6493089183083506.43741937
444544.6493089183083506.43741937444744.6493089183083506.43741937
444944.6493089183083506.43741937445144.6493089183083506.43741937
445344.6493089183083506.43741937445544.6493089183083506.43741937
445744.6493089183083506.43741937445944.6493089183083506.43741937
446144.6493089183083506.43741937446344.6493089183083506.43741937
446544.6493089183083506.43741937446744.6493089183083506.43741937
443944.6493089183083306.43741937444144.6493089183083306.43741937
444344.6493089183083306.43741937444544.6493089183083306.43741937
444744.6493089183083306.43741937444944.6493089183083306.43741937
445144.6493089183083306.43741937445344.6493089183083306.43741937
445544.6493089183083306.43741937445744.6493089183083306.43741937
445944.6493089183083306.43741937446144.6493089183083306.43741937
446344.6493089183083306.43741937446544.6493089183083306.43741937
445144.6493089183083106.43741937445344.6493089183083106.43741937
445544.6493089183083106.43741937445744.6493089183083106.43741937
445944.6493089183083106.43741937446144.6493089183083106.43741937
446344.6493089183083106.43741937446544.6493089183083106.43741937
445544.6493089183082906.43741937445744.6493089183082906.43741937
445944.6493089183082906.43741937446144.6493089183082906.43741937
446344.6493089183082906.43741937446544.6493089183082906.43741937
445944.6493089183082706.43741937446144.6493089183082706.43741937
446344.6493089183082706.43741937446544.6493089183082706.43741937
446144.6493089183082506.43741937446344.6493089183082506.43741937
446544.6493089183082506.43741937446544.6493089183082306.43741937
Storage Area 2D PointsPerimeterTime=25May2026 07:07:02
Storage Area Mannings=0.06
2D Cell Volume Filter Tolerance=0.003
2D Cell Minimum Area Fraction=0.01
2D Face Profile Filter Tolerance=0.003
2D Face Area Elevation Profile Filter Tolerance=0.003
2D Face Area Elevation Conveyance Ratio=0.02
2D Face Min Length Ratio=0.05
2D Face Area Laminar Depth=0.06
2D Multiple Face Mann n=0
2D Composite LC=0

BC Line Name=Downstream                      
BC Line Storage Area=Perimeter 1     
BC Line Start Position= 432885.004718819 , 3087944.49830146 
BC Line Middle Position= 432928.826258698 , 3086651.76287504 
BC Line End Position= 432972.647798577 , 3085359.02744862 
BC Line Arc= 2 
432885.0047188193087944.49830146432972.6477985773085359.02744862
BC Line Text Position= 1.79769313486232E+308 , 1.79769313486232E+308 
BC Line Name=Inflow                          
BC Line Storage Area=Perimeter 1     
BC Line Start Position= 446746.435093149 , 3083652.43312386 
BC Line Middle Position= 446747.889614337 , 3083082.00964337 
BC Line End Position= 446749.344135525 , 3082511.58616289 
BC Line Arc= 2 
446746.4350931493083652.43312386446749.3441355253082511.58616289
BC Line Text Position= 1.79769313486232E+308 , 1.79769313486232E+308 
LCMann Time=Dec/30/1899 00:00:00
LCMann Region Time=Dec/30/1899 00:00:00
LCMann Table=0
Chan Stop Cuts=-1 



Use User Specified Reach Order=0
GIS Ratio Cuts To Invert=-1
GIS Limit At Bridges=0
Composite Channel Slope=5
