Geom Title=GLOF_Geometry
Program Version=6.70
Viewing Rectangle= 431711.435893984 , 451295.892407638 , 3088732.77442063 , 3079352.99469753 

Storage Area=Rolwaling River ,,
Storage Area Surface Line= 20 
 432627.891327243085582.31392149                
  432692.77221493088269.33933332                
436141.3483235133088306.42079685                
 438662.887843793087490.62859912                
  441332.75321823085933.20713071                
444447.5961550123084932.00761531                
446894.9727482223084227.45980817                
447306.3225035993083656.38101236                
447522.3637443253083262.98028107                
448286.8854850443082844.06425876                
448859.1712755263082181.65681183                
449718.0800325233081130.35249326                
450405.6898388363080355.35785199                
449819.2074075993079779.34832131                
 446132.099935913082522.86038225                
443652.5832942513082472.58671608                
439247.3054264733084141.25257509                
437345.0263472053085409.43862793                
435142.3874133153085542.93189665                
 432627.891327243085582.31392149                
Storage Area Type= 1 
Storage Area Area=
Storage Area Min Elev=
Storage Area Is2D=-1
Storage Area Point Generation Data=,,30,30
Storage Area 2D Points= 47322 
 435462.891327243088291.42079685 435492.891327243088291.42079685
 435522.891327243088291.42079685 435552.891327243088291.42079685
 435582.891327243088291.42079685 435612.891327243088291.42079685
 435642.891327243088291.42079685 435672.891327243088291.42079685
 435702.891327243088291.42079685 435732.891327243088291.42079685
 435762.891327243088291.42079685 435792.891327243088291.42079685
 435822.891327243088291.42079685 435852.891327243088291.42079685
 435882.891327243088291.42079685 435912.891327243088291.42079685
 435942.891327243088291.42079685 435972.891327243088291.42079685
 436002.891327243088291.42079685 436032.891327243088291.42079685
 436062.891327243088291.42079685 436092.891327243088291.42079685
 436122.891327243088291.42079685 436152.891327243088291.42079685
 432702.891327243088261.42079685 432732.891327243088261.42079685
 432762.891327243088261.42079685 432792.891327243088261.42079685
 432822.891327243088261.42079685 432852.891327243088261.42079685
 432882.891327243088261.42079685 432912.891327243088261.42079685
 432942.891327243088261.42079685 432972.891327243088261.42079685
 433002.891327243088261.42079685 433032.891327243088261.42079685
 433062.891327243088261.42079685 433092.891327243088261.42079685
 433122.891327243088261.42079685 433152.891327243088261.42079685
 433182.891327243088261.42079685 433212.891327243088261.42079685
 433242.891327243088261.42079685 433272.891327243088261.42079685
 433302.891327243088261.42079685 433332.891327243088261.42079685
 433362.891327243088261.42079685 433392.891327243088261.42079685
 433422.891327243088261.42079685 433452.891327243088261.42079685
 433482.891327243088261.42079685 433512.891327243088261.42079685
 433542.891327243088261.42079685 433572.891327243088261.42079685
 433602.891327243088261.42079685 433632.891327243088261.42079685
 433662.891327243088261.42079685 433692.891327243088261.42079685
 433722.891327243088261.42079685 433752.891327243088261.42079685
 433782.891327243088261.42079685 433812.891327243088261.42079685
 433842.891327243088261.42079685 433872.891327243088261.42079685
 433902.891327243088261.42079685 433932.891327243088261.42079685
 433962.891327243088261.42079685 433992.891327243088261.42079685
 434022.891327243088261.42079685 434052.891327243088261.42079685
 434082.891327243088261.42079685 434112.891327243088261.42079685
 434142.891327243088261.42079685 434172.891327243088261.42079685
 434202.891327243088261.42079685 434232.891327243088261.42079685
 434262.891327243088261.42079685 434292.891327243088261.42079685
 434322.891327243088261.42079685 434352.891327243088261.42079685
 434382.891327243088261.42079685 434412.891327243088261.42079685
 434442.891327243088261.42079685 434472.891327243088261.42079685
 434502.891327243088261.42079685 434532.891327243088261.42079685
 434562.891327243088261.42079685 434592.891327243088261.42079685
 434622.891327243088261.42079685 434652.891327243088261.42079685
 434682.891327243088261.42079685 434712.891327243088261.42079685
 434742.891327243088261.42079685 434772.891327243088261.42079685
 434802.891327243088261.42079685 434832.891327243088261.42079685
 434862.891327243088261.42079685 434892.891327243088261.42079685
 434922.891327243088261.42079685 434952.891327243088261.42079685
 434982.891327243088261.42079685 435012.891327243088261.42079685
 435042.891327243088261.42079685 435072.891327243088261.42079685
 435102.891327243088261.42079685 435132.891327243088261.42079685
 435162.891327243088261.42079685 435192.891327243088261.42079685
 435222.891327243088261.42079685 435252.891327243088261.42079685
 435282.891327243088261.42079685 435312.891327243088261.42079685
 435342.891327243088261.42079685 435372.891327243088261.42079685
 435402.891327243088261.42079685 435432.891327243088261.42079685
 435462.891327243088261.42079685 435492.891327243088261.42079685
 435522.891327243088261.42079685 435552.891327243088261.42079685
 435582.891327243088261.42079685 435612.891327243088261.42079685
 435642.891327243088261.42079685 435672.891327243088261.42079685
 435702.891327243088261.42079685 435732.891327243088261.42079685
 435762.891327243088261.42079685 435792.891327243088261.42079685
 435822.891327243088261.42079685 435852.891327243088261.42079685
 435882.891327243088261.42079685 435912.891327243088261.42079685
 435942.891327243088261.42079685 435972.891327243088261.42079685
 436002.891327243088261.42079685 436032.891327243088261.42079685
 436062.891327243088261.42079685 436092.891327243088261.42079685
 436122.891327243088261.42079685 436152.891327243088261.42079685
 436182.891327243088261.42079685 436212.891327243088261.42079685
 436242.891327243088261.42079685 432702.891327243088231.42079685
 432732.891327243088231.42079685 432762.891327243088231.42079685
 432792.891327243088231.42079685 432822.891327243088231.42079685
 432852.891327243088231.42079685 432882.891327243088231.42079685
 432912.891327243088231.42079685 432942.891327243088231.42079685
 432972.891327243088231.42079685 433002.891327243088231.42079685
 433032.891327243088231.42079685 433062.891327243088231.42079685
 433092.891327243088231.42079685 433122.891327243088231.42079685
 433152.891327243088231.42079685 433182.891327243088231.42079685
 433212.891327243088231.42079685 433242.891327243088231.42079685
 433272.891327243088231.42079685 433302.891327243088231.42079685
 433332.891327243088231.42079685 433362.891327243088231.42079685
 433392.891327243088231.42079685 433422.891327243088231.42079685
 433452.891327243088231.42079685 433482.891327243088231.42079685
 433512.891327243088231.42079685 433542.891327243088231.42079685
 433572.891327243088231.42079685 433602.891327243088231.42079685
 433632.891327243088231.42079685 433662.891327243088231.42079685
 433692.891327243088231.42079685 433722.891327243088231.42079685
 433752.891327243088231.42079685 433782.891327243088231.42079685
 433812.891327243088231.42079685 433842.891327243088231.42079685
 433872.891327243088231.42079685 433902.891327243088231.42079685
 433932.891327243088231.42079685 433962.891327243088231.42079685
 433992.891327243088231.42079685 434022.891327243088231.42079685
 434052.891327243088231.42079685 434082.891327243088231.42079685
 434112.891327243088231.42079685 434142.891327243088231.42079685
 434172.891327243088231.42079685 434202.891327243088231.42079685
 434232.891327243088231.42079685 434262.891327243088231.42079685
 434292.891327243088231.42079685 434322.891327243088231.42079685
 434352.891327243088231.42079685 434382.891327243088231.42079685
 434412.891327243088231.42079685 434442.891327243088231.42079685
 434472.891327243088231.42079685 434502.891327243088231.42079685
 434532.891327243088231.42079685 434562.891327243088231.42079685
 434592.891327243088231.42079685 434622.891327243088231.42079685
 434652.891327243088231.42079685 434682.891327243088231.42079685
 434712.891327243088231.42079685 434742.891327243088231.42079685
 434772.891327243088231.42079685 434802.891327243088231.42079685
 434832.891327243088231.42079685 434862.891327243088231.42079685
 434892.891327243088231.42079685 434922.891327243088231.42079685
 434952.891327243088231.42079685 434982.891327243088231.42079685
 435012.891327243088231.42079685 435042.891327243088231.42079685
 435072.891327243088231.42079685 435102.891327243088231.42079685
 435132.891327243088231.42079685 435162.891327243088231.42079685
 435192.891327243088231.42079685 435222.891327243088231.42079685
 435252.891327243088231.42079685 435282.891327243088231.42079685
 435312.891327243088231.42079685 435342.891327243088231.42079685
 435372.891327243088231.42079685 435402.891327243088231.42079685
 435432.891327243088231.42079685 435462.891327243088231.42079685
 435492.891327243088231.42079685 435522.891327243088231.42079685
 435552.891327243088231.42079685 435582.891327243088231.42079685
 435612.891327243088231.42079685 435642.891327243088231.42079685
 435672.891327243088231.42079685 435702.891327243088231.42079685
 435732.891327243088231.42079685 435762.891327243088231.42079685
 435792.891327243088231.42079685 435822.891327243088231.42079685
 435852.891327243088231.42079685 435882.891327243088231.42079685
 435912.891327243088231.42079685 435942.891327243088231.42079685
 435972.891327243088231.42079685 436002.891327243088231.42079685
 436032.891327243088231.42079685 436062.891327243088231.42079685
 436092.891327243088231.42079685 436122.891327243088231.42079685
 436152.891327243088231.42079685 436182.891327243088231.42079685
 436212.891327243088231.42079685 436242.891327243088231.42079685
 436272.891327243088231.42079685 436302.891327243088231.42079685
 436332.891327243088231.42079685 432702.891327243088201.42079685
 432732.891327243088201.42079685 432762.891327243088201.42079685
 432792.891327243088201.42079685 432822.891327243088201.42079685
 432852.891327243088201.42079685 432882.891327243088201.42079685
 432912.891327243088201.42079685 432942.891327243088201.42079685
 432972.891327243088201.42079685 433002.891327243088201.42079685
 433032.891327243088201.42079685 433062.891327243088201.42079685
 433092.891327243088201.42079685 433122.891327243088201.42079685
 433152.891327243088201.42079685 433182.891327243088201.42079685
 433212.891327243088201.42079685 433242.891327243088201.42079685
 433272.891327243088201.42079685 433302.891327243088201.42079685
 433332.891327243088201.42079685 433362.891327243088201.42079685
 433392.891327243088201.42079685 433422.891327243088201.42079685
 433452.891327243088201.42079685 433482.891327243088201.42079685
 433512.891327243088201.42079685 433542.891327243088201.42079685
 433572.891327243088201.42079685 433602.891327243088201.42079685
 433632.891327243088201.42079685 433662.891327243088201.42079685
 433692.891327243088201.42079685 433722.891327243088201.42079685
 433752.891327243088201.42079685 433782.891327243088201.42079685
 433812.891327243088201.42079685 433842.891327243088201.42079685
 433872.891327243088201.42079685 433902.891327243088201.42079685
 433932.891327243088201.42079685 433962.891327243088201.42079685
 433992.891327243088201.42079685 434022.891327243088201.42079685
 434052.891327243088201.42079685 434082.891327243088201.42079685
 434112.891327243088201.42079685 434142.891327243088201.42079685
 434172.891327243088201.42079685 434202.891327243088201.42079685
 434232.891327243088201.42079685 434262.891327243088201.42079685
 434292.891327243088201.42079685 434322.891327243088201.42079685
 434352.891327243088201.42079685 434382.891327243088201.42079685
 434412.891327243088201.42079685 434442.891327243088201.42079685
 434472.891327243088201.42079685 434502.891327243088201.42079685
 434532.891327243088201.42079685 434562.891327243088201.42079685
 434592.891327243088201.42079685 434622.891327243088201.42079685
 434652.891327243088201.42079685 434682.891327243088201.42079685
 434712.891327243088201.42079685 434742.891327243088201.42079685
 434772.891327243088201.42079685 434802.891327243088201.42079685
 434832.891327243088201.42079685 434862.891327243088201.42079685
 434892.891327243088201.42079685 434922.891327243088201.42079685
 434952.891327243088201.42079685 434982.891327243088201.42079685
 435012.891327243088201.42079685 435042.891327243088201.42079685
 435072.891327243088201.42079685 435102.891327243088201.42079685
 435132.891327243088201.42079685 435162.891327243088201.42079685
 435192.891327243088201.42079685 435222.891327243088201.42079685
 435252.891327243088201.42079685 435282.891327243088201.42079685
 435312.891327243088201.42079685 435342.891327243088201.42079685
 435372.891327243088201.42079685 435402.891327243088201.42079685
 435432.891327243088201.42079685 435462.891327243088201.42079685
 435492.891327243088201.42079685 435522.891327243088201.42079685
 435552.891327243088201.42079685 435582.891327243088201.42079685
 435612.891327243088201.42079685 435642.891327243088201.42079685
 435672.891327243088201.42079685 435702.891327243088201.42079685
 435732.891327243088201.42079685 435762.891327243088201.42079685
 435792.891327243088201.42079685 435822.891327243088201.42079685
 435852.891327243088201.42079685 435882.891327243088201.42079685
 435912.891327243088201.42079685 435942.891327243088201.42079685
 435972.891327243088201.42079685 436002.891327243088201.42079685
 436032.891327243088201.42079685 436062.891327243088201.42079685
 436092.891327243088201.42079685 436122.891327243088201.42079685
 436152.891327243088201.42079685 436182.891327243088201.42079685
 436212.891327243088201.42079685 436242.891327243088201.42079685
 436272.891327243088201.42079685 436302.891327243088201.42079685
 436332.891327243088201.42079685 436362.891327243088201.42079685
 436392.891327243088201.42079685 436422.891327243088201.42079685
 432702.891327243088171.42079685 432732.891327243088171.42079685
 432762.891327243088171.42079685 432792.891327243088171.42079685
 432822.891327243088171.42079685 432852.891327243088171.42079685
 432882.891327243088171.42079685 432912.891327243088171.42079685
 432942.891327243088171.42079685 432972.891327243088171.42079685
 433002.891327243088171.42079685 433032.891327243088171.42079685
 433062.891327243088171.42079685 433092.891327243088171.42079685
 433122.891327243088171.42079685 433152.891327243088171.42079685
 433182.891327243088171.42079685 433212.891327243088171.42079685
 433242.891327243088171.42079685 433272.891327243088171.42079685
 433302.891327243088171.42079685 433332.891327243088171.42079685
 433362.891327243088171.42079685 433392.891327243088171.42079685
 433422.891327243088171.42079685 433452.891327243088171.42079685
 433482.891327243088171.42079685 433512.891327243088171.42079685
 433542.891327243088171.42079685 433572.891327243088171.42079685
 433602.891327243088171.42079685 433632.891327243088171.42079685
 433662.891327243088171.42079685 433692.891327243088171.42079685
 433722.891327243088171.42079685 433752.891327243088171.42079685
 433782.891327243088171.42079685 433812.891327243088171.42079685
 433842.891327243088171.42079685 433872.891327243088171.42079685
 433902.891327243088171.42079685 433932.891327243088171.42079685
 433962.891327243088171.42079685 433992.891327243088171.42079685
 434022.891327243088171.42079685 434052.891327243088171.42079685
 434082.891327243088171.42079685 434112.891327243088171.42079685
 434142.891327243088171.42079685 434172.891327243088171.42079685
 434202.891327243088171.42079685 434232.891327243088171.42079685
 434262.891327243088171.42079685 434292.891327243088171.42079685
 434322.891327243088171.42079685 434352.891327243088171.42079685
 434382.891327243088171.42079685 434412.891327243088171.42079685
 434442.891327243088171.42079685 434472.891327243088171.42079685
 434502.891327243088171.42079685 434532.891327243088171.42079685
 434562.891327243088171.42079685 434592.891327243088171.42079685
 434622.891327243088171.42079685 434652.891327243088171.42079685
 434682.891327243088171.42079685 434712.891327243088171.42079685
 434742.891327243088171.42079685 434772.891327243088171.42079685
 434802.891327243088171.42079685 434832.891327243088171.42079685
 434862.891327243088171.42079685 434892.891327243088171.42079685
 434922.891327243088171.42079685 434952.891327243088171.42079685
 434982.891327243088171.42079685 435012.891327243088171.42079685
 435042.891327243088171.42079685 435072.891327243088171.42079685
 435102.891327243088171.42079685 435132.891327243088171.42079685
 435162.891327243088171.42079685 435192.891327243088171.42079685
 435222.891327243088171.42079685 435252.891327243088171.42079685
 435282.891327243088171.42079685 435312.891327243088171.42079685
 435342.891327243088171.42079685 435372.891327243088171.42079685
 435402.891327243088171.42079685 435432.891327243088171.42079685
 435462.891327243088171.42079685 435492.891327243088171.42079685
 435522.891327243088171.42079685 435552.891327243088171.42079685
 435582.891327243088171.42079685 435612.891327243088171.42079685
 435642.891327243088171.42079685 435672.891327243088171.42079685
 435702.891327243088171.42079685 435732.891327243088171.42079685
 435762.891327243088171.42079685 435792.891327243088171.42079685
 435822.891327243088171.42079685 435852.891327243088171.42079685
 435882.891327243088171.42079685 435912.891327243088171.42079685
 435942.891327243088171.42079685 435972.891327243088171.42079685
 436002.891327243088171.42079685 436032.891327243088171.42079685
 436062.891327243088171.42079685 436092.891327243088171.42079685
 436122.891327243088171.42079685 436152.891327243088171.42079685
 436182.891327243088171.42079685 436212.891327243088171.42079685
 436242.891327243088171.42079685 436272.891327243088171.42079685
 436302.891327243088171.42079685 436332.891327243088171.42079685
 436362.891327243088171.42079685 436392.891327243088171.42079685
 436422.891327243088171.42079685 436452.891327243088171.42079685
 436482.891327243088171.42079685 436512.891327243088171.42079685
 432702.891327243088141.42079685 432732.891327243088141.42079685
 432762.891327243088141.42079685 432792.891327243088141.42079685
 432822.891327243088141.42079685 432852.891327243088141.42079685
 432882.891327243088141.42079685 432912.891327243088141.42079685
 432942.891327243088141.42079685 432972.891327243088141.42079685
 433002.891327243088141.42079685 433032.891327243088141.42079685
 433062.891327243088141.42079685 433092.891327243088141.42079685
 433122.891327243088141.42079685 433152.891327243088141.42079685
 433182.891327243088141.42079685 433212.891327243088141.42079685
 433242.891327243088141.42079685 433272.891327243088141.42079685
 433302.891327243088141.42079685 433332.891327243088141.42079685
 433362.891327243088141.42079685 433392.891327243088141.42079685
 433422.891327243088141.42079685 433452.891327243088141.42079685
 433482.891327243088141.42079685 433512.891327243088141.42079685
 433542.891327243088141.42079685 433572.891327243088141.42079685
 433602.891327243088141.42079685 433632.891327243088141.42079685
 433662.891327243088141.42079685 433692.891327243088141.42079685
 433722.891327243088141.42079685 433752.891327243088141.42079685
 433782.891327243088141.42079685 433812.891327243088141.42079685
 433842.891327243088141.42079685 433872.891327243088141.42079685
 433902.891327243088141.42079685 433932.891327243088141.42079685
 433962.891327243088141.42079685 433992.891327243088141.42079685
 434022.891327243088141.42079685 434052.891327243088141.42079685
 434082.891327243088141.42079685 434112.891327243088141.42079685
 434142.891327243088141.42079685 434172.891327243088141.42079685
 434202.891327243088141.42079685 434232.891327243088141.42079685
 434262.891327243088141.42079685 434292.891327243088141.42079685
 434322.891327243088141.42079685 434352.891327243088141.42079685
 434382.891327243088141.42079685 434412.891327243088141.42079685
 434442.891327243088141.42079685 434472.891327243088141.42079685
 434502.891327243088141.42079685 434532.891327243088141.42079685
 434562.891327243088141.42079685 434592.891327243088141.42079685
 434622.891327243088141.42079685 434652.891327243088141.42079685
 434682.891327243088141.42079685 434712.891327243088141.42079685
 434742.891327243088141.42079685 434772.891327243088141.42079685
 434802.891327243088141.42079685 434832.891327243088141.42079685
 434862.891327243088141.42079685 434892.891327243088141.42079685
 434922.891327243088141.42079685 434952.891327243088141.42079685
 434982.891327243088141.42079685 435012.891327243088141.42079685
 435042.891327243088141.42079685 435072.891327243088141.42079685
 435102.891327243088141.42079685 435132.891327243088141.42079685
 435162.891327243088141.42079685 435192.891327243088141.42079685
 435222.891327243088141.42079685 435252.891327243088141.42079685
 435282.891327243088141.42079685 435312.891327243088141.42079685
 435342.891327243088141.42079685 435372.891327243088141.42079685
 435402.891327243088141.42079685 435432.891327243088141.42079685
 435462.891327243088141.42079685 435492.891327243088141.42079685
 435522.891327243088141.42079685 435552.891327243088141.42079685
 435582.891327243088141.42079685 435612.891327243088141.42079685
 435642.891327243088141.42079685 435672.891327243088141.42079685
 435702.891327243088141.42079685 435732.891327243088141.42079685
 435762.891327243088141.42079685 435792.891327243088141.42079685
 435822.891327243088141.42079685 435852.891327243088141.42079685
 435882.891327243088141.42079685 435912.891327243088141.42079685
 435942.891327243088141.42079685 435972.891327243088141.42079685
 436002.891327243088141.42079685 436032.891327243088141.42079685
 436062.891327243088141.42079685 436092.891327243088141.42079685
 436122.891327243088141.42079685 436152.891327243088141.42079685
 436182.891327243088141.42079685 436212.891327243088141.42079685
 436242.891327243088141.42079685 436272.891327243088141.42079685
 436302.891327243088141.42079685 436332.891327243088141.42079685
 436362.891327243088141.42079685 436392.891327243088141.42079685
 436422.891327243088141.42079685 436452.891327243088141.42079685
 436482.891327243088141.42079685 436512.891327243088141.42079685
 436542.891327243088141.42079685 436572.891327243088141.42079685
 436602.891327243088141.42079685 432702.891327243088111.42079685
 432732.891327243088111.42079685 432762.891327243088111.42079685
 432792.891327243088111.42079685 432822.891327243088111.42079685
 432852.891327243088111.42079685 432882.891327243088111.42079685
 432912.891327243088111.42079685 432942.891327243088111.42079685
 432972.891327243088111.42079685 433002.891327243088111.42079685
 433032.891327243088111.42079685 433062.891327243088111.42079685
 433092.891327243088111.42079685 433122.891327243088111.42079685
 433152.891327243088111.42079685 433182.891327243088111.42079685
 433212.891327243088111.42079685 433242.891327243088111.42079685
 433272.891327243088111.42079685 433302.891327243088111.42079685
 433332.891327243088111.42079685 433362.891327243088111.42079685
 433392.891327243088111.42079685 433422.891327243088111.42079685
 433452.891327243088111.42079685 433482.891327243088111.42079685
 433512.891327243088111.42079685 433542.891327243088111.42079685
 433572.891327243088111.42079685 433602.891327243088111.42079685
 433632.891327243088111.42079685 433662.891327243088111.42079685
 433692.891327243088111.42079685 433722.891327243088111.42079685
 433752.891327243088111.42079685 433782.891327243088111.42079685
 433812.891327243088111.42079685 433842.891327243088111.42079685
 433872.891327243088111.42079685 433902.891327243088111.42079685
 433932.891327243088111.42079685 433962.891327243088111.42079685
 433992.891327243088111.42079685 434022.891327243088111.42079685
 434052.891327243088111.42079685 434082.891327243088111.42079685
 434112.891327243088111.42079685 434142.891327243088111.42079685
 434172.891327243088111.42079685 434202.891327243088111.42079685
 434232.891327243088111.42079685 434262.891327243088111.42079685
 434292.891327243088111.42079685 434322.891327243088111.42079685
 434352.891327243088111.42079685 434382.891327243088111.42079685
 434412.891327243088111.42079685 434442.891327243088111.42079685
 434472.891327243088111.42079685 434502.891327243088111.42079685
 434532.891327243088111.42079685 434562.891327243088111.42079685
 434592.891327243088111.42079685 434622.891327243088111.42079685
 434652.891327243088111.42079685 434682.891327243088111.42079685
 434712.891327243088111.42079685 434742.891327243088111.42079685
 434772.891327243088111.42079685 434802.891327243088111.42079685
 434832.891327243088111.42079685 434862.891327243088111.42079685
 434892.891327243088111.42079685 434922.891327243088111.42079685
 434952.891327243088111.42079685 434982.891327243088111.42079685
 435012.891327243088111.42079685 435042.891327243088111.42079685
 435072.891327243088111.42079685 435102.891327243088111.42079685
 435132.891327243088111.42079685 435162.891327243088111.42079685
 435192.891327243088111.42079685 435222.891327243088111.42079685
 435252.891327243088111.42079685 435282.891327243088111.42079685
 435312.891327243088111.42079685 435342.891327243088111.42079685
 435372.891327243088111.42079685 435402.891327243088111.42079685
 435432.891327243088111.42079685 435462.891327243088111.42079685
 435492.891327243088111.42079685 435522.891327243088111.42079685
 435552.891327243088111.42079685 435582.891327243088111.42079685
 435612.891327243088111.42079685 435642.891327243088111.42079685
 435672.891327243088111.42079685 435702.891327243088111.42079685
 435732.891327243088111.42079685 435762.891327243088111.42079685
 435792.891327243088111.42079685 435822.891327243088111.42079685
 435852.891327243088111.42079685 435882.891327243088111.42079685
 435912.891327243088111.42079685 435942.891327243088111.42079685
 435972.891327243088111.42079685 436002.891327243088111.42079685
 436032.891327243088111.42079685 436062.891327243088111.42079685
 436092.891327243088111.42079685 436122.891327243088111.42079685
 436152.891327243088111.42079685 436182.891327243088111.42079685
 436212.891327243088111.42079685 436242.891327243088111.42079685
 436272.891327243088111.42079685 436302.891327243088111.42079685
 436332.891327243088111.42079685 436362.891327243088111.42079685
 436392.891327243088111.42079685 436422.891327243088111.42079685
 436452.891327243088111.42079685 436482.891327243088111.42079685
 436512.891327243088111.42079685 436542.891327243088111.42079685
 436572.891327243088111.42079685 436602.891327243088111.42079685
 436632.891327243088111.42079685 436662.891327243088111.42079685
 436692.891327243088111.42079685 432702.891327243088081.42079685
 432732.891327243088081.42079685 432762.891327243088081.42079685
 432792.891327243088081.42079685 432822.891327243088081.42079685
 432852.891327243088081.42079685 432882.891327243088081.42079685
 432912.891327243088081.42079685 432942.891327243088081.42079685
 432972.891327243088081.42079685 433002.891327243088081.42079685
 433032.891327243088081.42079685 433062.891327243088081.42079685
 433092.891327243088081.42079685 433122.891327243088081.42079685
 433152.891327243088081.42079685 433182.891327243088081.42079685
 433212.891327243088081.42079685 433242.891327243088081.42079685
 433272.891327243088081.42079685 433302.891327243088081.42079685
 433332.891327243088081.42079685 433362.891327243088081.42079685
 433392.891327243088081.42079685 433422.891327243088081.42079685
 433452.891327243088081.42079685 433482.891327243088081.42079685
 433512.891327243088081.42079685 433542.891327243088081.42079685
 433572.891327243088081.42079685 433602.891327243088081.42079685
 433632.891327243088081.42079685 433662.891327243088081.42079685
 433692.891327243088081.42079685 433722.891327243088081.42079685
 433752.891327243088081.42079685 433782.891327243088081.42079685
 433812.891327243088081.42079685 433842.891327243088081.42079685
 433872.891327243088081.42079685 433902.891327243088081.42079685
 433932.891327243088081.42079685 433962.891327243088081.42079685
 433992.891327243088081.42079685 434022.891327243088081.42079685
 434052.891327243088081.42079685 434082.891327243088081.42079685
 434112.891327243088081.42079685 434142.891327243088081.42079685
 434172.891327243088081.42079685 434202.891327243088081.42079685
 434232.891327243088081.42079685 434262.891327243088081.42079685
 434292.891327243088081.42079685 434322.891327243088081.42079685
 434352.891327243088081.42079685 434382.891327243088081.42079685
 434412.891327243088081.42079685 434442.891327243088081.42079685
 434472.891327243088081.42079685 434502.891327243088081.42079685
 434532.891327243088081.42079685 434562.891327243088081.42079685
 434592.891327243088081.42079685 434622.891327243088081.42079685
 434652.891327243088081.42079685 434682.891327243088081.42079685
 434712.891327243088081.42079685 434742.891327243088081.42079685
 434772.891327243088081.42079685 434802.891327243088081.42079685
 434832.891327243088081.42079685 434862.891327243088081.42079685
 434892.891327243088081.42079685 434922.891327243088081.42079685
 434952.891327243088081.42079685 434982.891327243088081.42079685
 435012.891327243088081.42079685 435042.891327243088081.42079685
 435072.891327243088081.42079685 435102.891327243088081.42079685
 435132.891327243088081.42079685 435162.891327243088081.42079685
 435192.891327243088081.42079685 435222.891327243088081.42079685
 435252.891327243088081.42079685 435282.891327243088081.42079685
 435312.891327243088081.42079685 435342.891327243088081.42079685
 435372.891327243088081.42079685 435402.891327243088081.42079685
 435432.891327243088081.42079685 435462.891327243088081.42079685
 435492.891327243088081.42079685 435522.891327243088081.42079685
 435552.891327243088081.42079685 435582.891327243088081.42079685