Geom Title=GLOF_Geometry
Program Version=6.70
Viewing Rectangle= 431711.435893984 , 451348.036817387 , 3088733.92503794 , 3079328.83173399 

Storage Area=Rolwaling River ,,
Storage Area Surface Line= 0 
Storage Area Type= 1 
Storage Area Area=
Storage Area Min Elev=
Storage Area Is2D=-1
Storage Area Point Generation Data=0,0,100,100
Storage Area 2D Points= 2966 
433129.470022929 3087342.5268665433229.470022929 3087342.5268665
433329.470022929 3087342.5268665433429.470022929 3087342.5268665
433529.470022929 3087342.5268665433629.470022929 3087342.5268665
433729.470022929 3087342.5268665433829.470022929 3087342.5268665
433929.470022929 3087342.5268665433129.470022929 3087242.5268665
433229.470022929 3087242.5268665433329.470022929 3087242.5268665
433429.470022929 3087242.5268665433529.470022929 3087242.5268665
433629.470022929 3087242.5268665433729.470022929 3087242.5268665
433829.470022929 3087242.5268665433929.470022929 3087242.5268665
434029.470022929 3087242.5268665434129.470022929 3087242.5268665
434229.470022929 3087242.5268665434329.470022929 3087242.5268665
434429.470022929 3087242.5268665434529.470022929 3087242.5268665
434629.470022929 3087242.5268665434729.470022929 3087242.5268665
434829.470022929 3087242.5268665434929.470022929 3087242.5268665
435029.470022929 3087242.5268665435129.470022929 3087242.5268665
435229.470022929 3087242.5268665435329.470022929 3087242.5268665
435429.470022929 3087242.5268665435529.470022929 3087242.5268665
435629.470022929 3087242.5268665435729.470022929 3087242.5268665
435829.470022929 3087242.5268665435929.470022929 3087242.5268665
436029.470022929 3087242.5268665436129.470022929 3087242.5268665
436229.470022929 3087242.5268665436329.470022929 3087242.5268665
436429.470022929 3087242.5268665436529.470022929 3087242.5268665
436629.470022929 3087242.5268665436729.470022929 3087242.5268665
436829.470022929 3087242.5268665436929.470022929 3087242.5268665
437029.470022929 3087242.5268665437129.470022929 3087242.5268665
437229.470022929 3087242.5268665437329.470022929 3087242.5268665
437429.470022929 3087242.5268665433129.470022929 3087142.5268665
433229.470022929 3087142.5268665433329.470022929 3087142.5268665
433429.470022929 3087142.5268665433529.470022929 3087142.5268665
433629.470022929 3087142.5268665433729.470022929 3087142.5268665
433829.470022929 3087142.5268665433929.470022929 3087142.5268665
434029.470022929 3087142.5268665434129.470022929 3087142.5268665
434229.470022929 3087142.5268665434329.470022929 3087142.5268665
434429.470022929 3087142.5268665434529.470022929 3087142.5268665
434629.470022929 3087142.5268665434729.470022929 3087142.5268665
434829.470022929 3087142.5268665434929.470022929 3087142.5268665
435029.470022929 3087142.5268665435129.470022929 3087142.5268665
435229.470022929 3087142.5268665435329.470022929 3087142.5268665
435429.470022929 3087142.5268665435529.470022929 3087142.5268665
435629.470022929 3087142.5268665435729.470022929 3087142.5268665
435829.470022929 3087142.5268665435929.470022929 3087142.5268665
436029.470022929 3087142.5268665436129.470022929 3087142.5268665
436229.470022929 3087142.5268665436329.470022929 3087142.5268665
436429.470022929 3087142.5268665436529.470022929 3087142.5268665
436629.470022929 3087142.5268665436729.470022929 3087142.5268665
436829.470022929 3087142.5268665436929.470022929 3087142.5268665
437029.470022929 3087142.5268665437129.470022929 3087142.5268665
437229.470022929 3087142.5268665437329.470022929 3087142.5268665
437429.470022929 3087142.5268665437529.470022929 3087142.5268665
437629.470022929 3087142.5268665437729.470022929 3087142.5268665
437829.470022929 3087142.5268665437929.470022929 3087142.5268665
438029.470022929 3087142.5268665438129.470022929 3087142.5268665
438229.470022929 3087142.5268665438329.470022929 3087142.5268665
438429.470022929 3087142.5268665438529.470022929 3087142.5268665
438629.470022929 3087142.5268665438729.470022929 3087142.5268665
438829.470022929 3087142.5268665438929.470022929 3087142.5268665
439029.470022929 3087142.5268665439129.470022929 3087142.5268665
433129.470022929 3087042.5268665433229.470022929 3087042.5268665
433329.470022929 3087042.5268665433429.470022929 3087042.5268665
433529.470022929 3087042.5268665433629.470022929 3087042.5268665
433729.470022929 3087042.5268665433829.470022929 3087042.5268665
433929.470022929 3087042.5268665434029.470022929 3087042.5268665
434129.470022929 3087042.5268665434229.470022929 3087042.5268665
434329.470022929 3087042.5268665434429.470022929 3087042.5268665
434529.470022929 3087042.5268665434629.470022929 3087042.5268665
434729.470022929 3087042.5268665434829.470022929 3087042.5268665
434929.470022929 3087042.5268665435029.470022929 3087042.5268665
435129.470022929 3087042.5268665435229.470022929 3087042.5268665
435329.470022929 3087042.5268665435429.470022929 3087042.5268665
435529.470022929 3087042.5268665435629.470022929 3087042.5268665
435729.470022929 3087042.5268665435829.470022929 3087042.5268665
435929.470022929 3087042.5268665436029.470022929 3087042.5268665
436129.470022929 3087042.5268665436229.470022929 3087042.5268665
436329.470022929 3087042.5268665436429.470022929 3087042.5268665
436529.470022929 3087042.5268665436629.470022929 3087042.5268665
436729.470022929 3087042.5268665436829.470022929 3087042.5268665
436929.470022929 3087042.5268665437029.470022929 3087042.5268665
437129.470022929 3087042.5268665437229.470022929 3087042.5268665
437329.470022929 3087042.5268665437429.470022929 3087042.5268665
437529.470022929 3087042.5268665437629.470022929 3087042.5268665
437729.470022929 3087042.5268665437829.470022929 3087042.5268665
437929.470022929 3087042.5268665438029.470022929 3087042.5268665
438129.470022929 3087042.5268665438229.470022929 3087042.5268665
438329.470022929 3087042.5268665438429.470022929 3087042.5268665
438529.470022929 3087042.5268665438629.470022929 3087042.5268665
438729.470022929 3087042.5268665438829.470022929 3087042.5268665
438929.470022929 3087042.5268665439029.470022929 3087042.5268665
439129.470022929 3087042.5268665439229.470022929 3087042.5268665
439329.470022929 3087042.5268665439429.470022929 3087042.5268665
439529.470022929 3087042.5268665439629.470022929 3087042.5268665
439729.470022929 3087042.5268665439829.470022929 3087042.5268665
439929.470022929 3087042.5268665433129.470022929 3086942.5268665
433229.470022929 3086942.5268665433329.470022929 3086942.5268665
433429.470022929 3086942.5268665433529.470022929 3086942.5268665
433629.470022929 3086942.5268665433729.470022929 3086942.5268665
433829.470022929 3086942.5268665433929.470022929 3086942.5268665
434029.470022929 3086942.5268665434129.470022929 3086942.5268665
434229.470022929 3086942.5268665434329.470022929 3086942.5268665
434429.470022929 3086942.5268665434529.470022929 3086942.5268665
434629.470022929 3086942.5268665434729.470022929 3086942.5268665
434829.470022929 3086942.5268665434929.470022929 3086942.5268665
435029.470022929 3086942.5268665435129.470022929 3086942.5268665
435229.470022929 3086942.5268665435329.470022929 3086942.5268665
435429.470022929 3086942.5268665435529.470022929 3086942.5268665
435629.470022929 3086942.5268665435729.470022929 3086942.5268665
435829.470022929 3086942.5268665435929.470022929 3086942.5268665
436029.470022929 3086942.5268665436129.470022929 3086942.5268665
436229.470022929 3086942.5268665436329.470022929 3086942.5268665
436429.470022929 3086942.5268665436529.470022929 3086942.5268665
436629.470022929 3086942.5268665436729.470022929 3086942.5268665
436829.470022929 3086942.5268665436929.470022929 3086942.5268665
437029.470022929 3086942.5268665437129.470022929 3086942.5268665
437229.470022929 3086942.5268665437329.470022929 3086942.5268665
437429.470022929 3086942.5268665437529.470022929 3086942.5268665
437629.470022929 3086942.5268665437729.470022929 3086942.5268665
437829.470022929 3086942.5268665437929.470022929 3086942.5268665
438029.470022929 3086942.5268665438129.470022929 3086942.5268665
438229.470022929 3086942.5268665438329.470022929 3086942.5268665
438429.470022929 3086942.5268665438529.470022929 3086942.5268665
438629.470022929 3086942.5268665438729.470022929 3086942.5268665
438829.470022929 3086942.5268665438929.470022929 3086942.5268665
439029.470022929 3086942.5268665439129.470022929 3086942.5268665
439229.470022929 3086942.5268665439329.470022929 3086942.5268665
439429.470022929 3086942.5268665439529.470022929 3086942.5268665
439629.470022929 3086942.5268665439729.470022929 3086942.5268665
439829.470022929 3086942.5268665439929.470022929 3086942.5268665
440029.470022929 3086942.5268665440129.470022929 3086942.5268665
433129.470022929 3086842.5268665433229.470022929 3086842.5268665
433329.470022929 3086842.5268665433429.470022929 3086842.5268665
433529.470022929 3086842.5268665433629.470022929 3086842.5268665
433729.470022929 3086842.5268665433829.470022929 3086842.5268665
433929.470022929 3086842.5268665434029.470022929 3086842.5268665
434129.470022929 3086842.5268665434229.470022929 3086842.5268665
434329.470022929 3086842.5268665434429.470022929 3086842.5268665
434529.470022929 3086842.5268665434629.470022929 3086842.5268665
434729.470022929 3086842.5268665434829.470022929 3086842.5268665
434929.470022929 3086842.5268665435029.470022929 3086842.5268665
435129.470022929 3086842.5268665435229.470022929 3086842.5268665
435329.470022929 3086842.5268665435429.470022929 3086842.5268665
435529.470022929 3086842.5268665435629.470022929 3086842.5268665
435729.470022929 3086842.5268665435829.470022929 3086842.5268665
435929.470022929 3086842.5268665436029.470022929 3086842.5268665
436129.470022929 3086842.5268665436229.470022929 3086842.5268665
436329.470022929 3086842.5268665436429.470022929 3086842.5268665
436529.470022929 3086842.5268665436629.470022929 3086842.5268665
436729.470022929 3086842.5268665436829.470022929 3086842.5268665
436929.470022929 3086842.5268665437029.470022929 3086842.5268665
437129.470022929 3086842.5268665437229.470022929 3086842.5268665
437329.470022929 3086842.5268665437429.470022929 3086842.5268665
437529.470022929 3086842.5268665437629.470022929 3086842.5268665
437729.470022929 3086842.5268665437829.470022929 3086842.5268665
437929.470022929 3086842.5268665438029.470022929 3086842.5268665
438129.470022929 3086842.5268665438229.470022929 3086842.5268665
438329.470022929 3086842.5268665438429.470022929 3086842.5268665
438529.470022929 3086842.5268665438629.470022929 3086842.5268665
438729.470022929 3086842.5268665438829.470022929 3086842.5268665
438929.470022929 3086842.5268665439029.470022929 3086842.5268665
439129.470022929 3086842.5268665439229.470022929 3086842.5268665
439329.470022929 3086842.5268665439429.470022929 3086842.5268665
439529.470022929 3086842.5268665439629.470022929 3086842.5268665
439729.470022929 3086842.5268665439829.470022929 3086842.5268665
439929.470022929 3086842.5268665440029.470022929 3086842.5268665
440129.470022929 3086842.5268665440229.470022929 3086842.5268665
433129.470022929 3086742.5268665433229.470022929 3086742.5268665
433329.470022929 3086742.5268665433429.470022929 3086742.5268665
433529.470022929 3086742.5268665433629.470022929 3086742.5268665
433729.470022929 3086742.5268665433829.470022929 3086742.5268665
433929.470022929 3086742.5268665434029.470022929 3086742.5268665
434129.470022929 3086742.5268665434229.470022929 3086742.5268665
434329.470022929 3086742.5268665434429.470022929 3086742.5268665
434529.470022929 3086742.5268665434629.470022929 3086742.5268665
434729.470022929 3086742.5268665434829.470022929 3086742.5268665
434929.470022929 3086742.5268665435029.470022929 3086742.5268665
435129.470022929 3086742.5268665435229.470022929 3086742.5268665
435329.470022929 3086742.5268665435429.470022929 3086742.5268665
435529.470022929 3086742.5268665435629.470022929 3086742.5268665
435729.470022929 3086742.5268665435829.470022929 3086742.5268665
435929.470022929 3086742.5268665436029.470022929 3086742.5268665
436129.470022929 3086742.5268665436229.470022929 3086742.5268665
436329.470022929 3086742.5268665436429.470022929 3086742.5268665
436529.470022929 3086742.5268665436629.470022929 3086742.5268665
436729.470022929 3086742.5268665436829.470022929 3086742.5268665
436929.470022929 3086742.5268665437029.470022929 3086742.5268665
437129.470022929 3086742.5268665437229.470022929 3086742.5268665
437329.470022929 3086742.5268665437429.470022929 3086742.5268665
437529.470022929 3086742.5268665437629.470022929 3086742.5268665
437729.470022929 3086742.5268665437829.470022929 3086742.5268665
437929.470022929 3086742.5268665438029.470022929 3086742.5268665
438129.470022929 3086742.5268665438229.470022929 3086742.5268665
438329.470022929 3086742.5268665438429.470022929 3086742.5268665
438529.470022929 3086742.5268665438629.470022929 3086742.5268665
438729.470022929 3086742.5268665438829.470022929 3086742.5268665
438929.470022929 3086742.5268665439029.470022929 3086742.5268665
439129.470022929 3086742.5268665439229.470022929 3086742.5268665
439329.470022929 3086742.5268665439429.470022929 3086742.5268665
439529.470022929 3086742.5268665439629.470022929 3086742.5268665
439729.470022929 3086742.5268665439829.470022929 3086742.5268665
439929.470022929 3086742.5268665440029.470022929 3086742.5268665
440129.470022929 3086742.5268665440229.470022929 3086742.5268665
440329.470022929 3086742.5268665440429.470022929 3086742.5268665
433129.470022929 3086642.5268665433229.470022929 3086642.5268665
433329.470022929 3086642.5268665433429.470022929 3086642.5268665
433529.470022929 3086642.5268665433629.470022929 3086642.5268665
433729.470022929 3086642.5268665433829.470022929 3086642.5268665
433929.470022929 3086642.5268665434029.470022929 3086642.5268665
434129.470022929 3086642.5268665434229.470022929 3086642.5268665
434329.470022929 3086642.5268665434429.470022929 3086642.5268665
434529.470022929 3086642.5268665434629.470022929 3086642.5268665
434729.470022929 3086642.5268665434829.470022929 3086642.5268665
434929.470022929 3086642.5268665435029.470022929 3086642.5268665
435129.470022929 3086642.5268665435229.470022929 3086642.5268665
435329.470022929 3086642.5268665435429.470022929 3086642.5268665
435529.470022929 3086642.5268665435629.470022929 3086642.5268665
435729.470022929 3086642.5268665435829.470022929 3086642.5268665
435929.470022929 3086642.5268665436029.470022929 3086642.5268665
436129.470022929 3086642.5268665436229.470022929 3086642.5268665
436329.470022929 3086642.5268665436429.470022929 3086642.5268665
436529.470022929 3086642.5268665436629.470022929 3086642.5268665
436729.470022929 3086642.5268665436829.470022929 3086642.5268665
436929.470022929 3086642.5268665437029.470022929 3086642.5268665
437129.470022929 3086642.5268665437229.470022929 3086642.5268665
437329.470022929 3086642.5268665437429.470022929 3086642.5268665
437529.470022929 3086642.5268665437629.470022929 3086642.5268665
437729.470022929 3086642.5268665437829.470022929 3086642.5268665
437929.470022929 3086642.5268665438029.470022929 3086642.5268665
438129.470022929 3086642.5268665438229.470022929 3086642.5268665
438329.470022929 3086642.5268665438429.470022929 3086642.5268665
438529.470022929 3086642.5268665438629.470022929 3086642.5268665
438729.470022929 3086642.5268665438829.470022929 3086642.5268665
438929.470022929 3086642.5268665439029.470022929 3086642.5268665
439129.470022929 3086642.5268665439229.470022929 3086642.5268665
439329.470022929 3086642.5268665439429.470022929 3086642.5268665
439529.470022929 3086642.5268665439629.470022929 3086642.5268665
439729.470022929 3086642.5268665439829.470022929 3086642.5268665
439929.470022929 3086642.5268665440029.470022929 3086642.5268665
440129.470022929 3086642.5268665440229.470022929 3086642.5268665
440329.470022929 3086642.5268665440429.470022929 3086642.5268665
440529.470022929 3086642.5268665433129.470022929 3086542.5268665
433229.470022929 3086542.5268665433329.470022929 3086542.5268665
433429.470022929 3086542.5268665433529.470022929 3086542.5268665
433629.470022929 3086542.5268665433729.470022929 3086542.5268665
433829.470022929 3086542.5268665433929.470022929 3086542.5268665
434029.470022929 3086542.5268665434129.470022929 3086542.5268665
434229.470022929 3086542.5268665434329.470022929 3086542.5268665
434429.470022929 3086542.5268665434529.470022929 3086542.5268665
434629.470022929 3086542.5268665434729.470022929 3086542.5268665
434829.470022929 3086542.5268665434929.470022929 3086542.5268665
435029.470022929 3086542.5268665435129.470022929 3086542.5268665
435229.470022929 3086542.5268665435329.470022929 3086542.5268665
435429.470022929 3086542.5268665435529.470022929 3086542.5268665
435629.470022929 3086542.5268665435729.470022929 3086542.5268665
435829.470022929 3086542.5268665435929.470022929 3086542.5268665
436029.470022929 3086542.5268665436129.470022929 3086542.5268665
436229.470022929 3086542.5268665436329.470022929 3086542.5268665
436429.470022929 3086542.5268665436529.470022929 3086542.5268665
436629.470022929 3086542.5268665436729.470022929 3086542.5268665
436829.470022929 3086542.5268665436929.470022929 3086542.5268665
437029.470022929 3086542.5268665437129.470022929 3086542.5268665
437229.470022929 3086542.5268665437329.470022929 3086542.5268665
437429.470022929 3086542.5268665437529.470022929 3086542.5268665
437629.470022929 3086542.5268665437729.470022929 3086542.5268665
437829.470022929 3086542.5268665437929.470022929 3086542.5268665
438029.470022929 3086542.5268665438129.470022929 3086542.5268665
438229.470022929 3086542.5268665438329.470022929 3086542.5268665
438429.470022929 3086542.5268665438529.470022929 3086542.5268665
438629.470022929 3086542.5268665438729.470022929 3086542.5268665
438829.470022929 3086542.5268665438929.470022929 3086542.5268665
439029.470022929 3086542.5268665439129.470022929 3086542.5268665
439229.470022929 3086542.5268665439329.470022929 3086542.5268665
439429.470022929 3086542.5268665439529.470022929 3086542.5268665
439629.470022929 3086542.5268665439729.470022929 3086542.5268665
439829.470022929 3086542.5268665439929.470022929 3086542.5268665
440029.470022929 3086542.5268665440129.470022929 3086542.5268665
440229.470022929 3086542.5268665440329.470022929 3086542.5268665
440429.470022929 3086542.5268665440529.470022929 3086542.5268665
440629.470022929 3086542.5268665440729.470022929 3086542.5268665
433129.470022929 3086442.5268665433229.470022929 3086442.5268665
433329.470022929 3086442.5268665433429.470022929 3086442.5268665
433529.470022929 3086442.5268665433629.470022929 3086442.5268665
433729.470022929 3086442.5268665433829.470022929 3086442.5268665
433929.470022929 3086442.5268665434029.470022929 3086442.5268665
434129.470022929 3086442.5268665434229.470022929 3086442.5268665
434329.470022929 3086442.5268665434429.470022929 3086442.5268665
434529.470022929 3086442.5268665434629.470022929 3086442.5268665
434729.470022929 3086442.5268665434829.470022929 3086442.5268665
434929.470022929 3086442.5268665435029.470022929 3086442.5268665
435129.470022929 3086442.5268665435229.470022929 3086442.5268665
435329.470022929 3086442.5268665435429.470022929 3086442.5268665
435529.470022929 3086442.5268665435629.470022929 3086442.5268665
435729.470022929 3086442.5268665435829.470022929 3086442.5268665
435929.470022929 3086442.5268665436029.470022929 3086442.5268665
436129.470022929 3086442.5268665436229.470022929 3086442.5268665
436329.470022929 3086442.5268665436429.470022929 3086442.5268665
436529.470022929 3086442.5268665436629.470022929 3086442.5268665
436729.470022929 3086442.5268665436829.470022929 3086442.5268665
436929.470022929 3086442.5268665437029.470022929 3086442.5268665
437129.470022929 3086442.5268665437229.470022929 3086442.5268665
437329.470022929 3086442.5268665437429.470022929 3086442.5268665
437529.470022929 3086442.5268665437629.470022929 3086442.5268665
437729.470022929 3086442.5268665437829.470022929 3086442.5268665
437929.470022929 3086442.5268665438029.470022929 3086442.5268665
438129.470022929 3086442.5268665438229.470022929 3086442.5268665
438329.470022929 3086442.5268665438429.470022929 3086442.5268665
438529.470022929 3086442.5268665438629.470022929 3086442.5268665
438729.470022929 3086442.5268665438829.470022929 3086442.5268665
438929.470022929 3086442.5268665439029.470022929 3086442.5268665
439129.470022929 3086442.5268665439229.470022929 3086442.5268665
439329.470022929 3086442.5268665439429.470022929 3086442.5268665
439529.470022929 3086442.5268665439629.470022929 3086442.5268665
439729.470022929 3086442.5268665439829.470022929 3086442.5268665
439929.470022929 3086442.5268665440029.470022929 3086442.5268665
440129.470022929 3086442.5268665440229.470022929 3086442.5268665
440329.470022929 3086442.5268665440429.470022929 3086442.5268665
440529.470022929 3086442.5268665440629.470022929 3086442.5268665
440729.470022929 3086442.5268665440829.470022929 3086442.5268665
440929.470022929 3086442.5268665433129.470022929 3086342.5268665
433229.470022929 3086342.5268665433329.470022929 3086342.5268665
433429.470022929 3086342.5268665433529.470022929 3086342.5268665
433629.470022929 3086342.5268665433729.470022929 3086342.5268665
433829.470022929 3086342.5268665433929.470022929 3086342.5268665
434029.470022929 3086342.5268665434129.470022929 3086342.5268665
434229.470022929 3086342.5268665434329.470022929 3086342.5268665
434429.470022929 3086342.5268665434529.470022929 3086342.5268665
434629.470022929 3086342.5268665434729.470022929 3086342.5268665
434829.470022929 3086342.5268665434929.470022929 3086342.5268665
435029.470022929 3086342.5268665435129.470022929 3086342.5268665
435229.470022929 3086342.5268665435329.470022929 3086342.5268665
435429.470022929 3086342.5268665435529.470022929 3086342.5268665
435629.470022929 3086342.5268665435729.470022929 3086342.5268665
435829.470022929 3086342.5268665435929.470022929 3086342.5268665
436029.470022929 3086342.5268665436129.470022929 3086342.5268665
436229.470022929 3086342.5268665436329.470022929 3086342.5268665
436429.470022929 3086342.5268665436529.470022929 3086342.5268665
436629.470022929 3086342.5268665436729.470022929 3086342.5268665
436829.470022929 3086342.5268665436929.470022929 3086342.5268665
437029.470022929 3086342.5268665437129.470022929 3086342.5268665
437229.470022929 3086342.5268665437329.470022929 3086342.5268665
437429.470022929 3086342.5268665437529.470022929 3086342.5268665
437629.470022929 3086342.5268665437729.470022929 3086342.5268665
437829.470022929 3086342.5268665437929.470022929 3086342.5268665
438029.470022929 3086342.5268665438129.470022929 3086342.5268665
438229.470022929 3086342.5268665438329.470022929 3086342.5268665
438429.470022929 3086342.5268665438529.470022929 3086342.5268665
438629.470022929 3086342.5268665438729.470022929 3086342.5268665
438829.470022929 3086342.5268665438929.470022929 3086342.5268665
439029.470022929 3086342.5268665439129.470022929 3086342.5268665
439229.470022929 3086342.5268665439329.470022929 3086342.5268665
439429.470022929 3086342.5268665439529.470022929 3086342.5268665
439629.470022929 3086342.5268665439729.470022929 3086342.5268665
439829.470022929 3086342.5268665439929.470022929 3086342.5268665
440029.470022929 3086342.5268665440129.470022929 3086342.5268665
440229.470022929 3086342.5268665440329.470022929 3086342.5268665
440429.470022929 3086342.5268665440529.470022929 3086342.5268665
440629.470022929 3086342.5268665440729.470022929 3086342.5268665
440829.470022929 3086342.5268665440929.470022929 3086342.5268665
441029.470022929 3086342.5268665433129.470022929 3086242.5268665
433229.470022929 3086242.5268665433329.470022929 3086242.5268665
433429.470022929 3086242.5268665433529.470022929 3086242.5268665
433629.470022929 3086242.5268665433729.470022929 3086242.5268665
433829.470022929 3086242.5268665433929.470022929 3086242.5268665
434029.470022929 3086242.5268665434129.470022929 3086242.5268665
434229.470022929 3086242.5268665434329.470022929 3086242.5268665
434429.470022929 3086242.5268665434529.470022929 3086242.5268665
434629.470022929 3086242.5268665434729.470022929 3086242.5268665
434829.470022929 3086242.5268665434929.470022929 3086242.5268665
435029.470022929 3086242.5268665435129.470022929 3086242.5268665
435229.470022929 3086242.5268665435329.470022929 3086242.5268665
435429.470022929 3086242.5268665435529.470022929 3086242.5268665
435629.470022929 3086242.5268665435729.470022929 3086242.5268665
435829.470022929 3086242.5268665435929.470022929 3086242.5268665
436029.470022929 3086242.5268665436129.470022929 3086242.5268665
436229.470022929 3086242.5268665436329.470022929 3086242.5268665
436429.470022929 3086242.5268665436529.470022929 3086242.5268665
436629.470022929 3086242.5268665436729.470022929 3086242.5268665
436829.470022929 3086242.5268665436929.470022929 3086242.5268665
437029.470022929 3086242.5268665437129.470022929 3086242.5268665
437229.470022929 3086242.5268665437329.470022929 3086242.5268665
437429.470022929 3086242.5268665437529.470022929 3086242.5268665
437629.470022929 3086242.5268665437729.470022929 3086242.5268665
437829.470022929 3086242.5268665437929.470022929 3086242.5268665
438029.470022929 3086242.5268665438129.470022929 3086242.5268665
438229.470022929 3086242.5268665438329.470022929 3086242.5268665
438429.470022929 3086242.5268665438529.470022929 3086242.5268665
438629.470022929 3086242.5268665438729.470022929 3086242.5268665
438829.470022929 3086242.5268665438929.470022929 3086242.5268665
439029.470022929 3086242.5268665439129.470022929 3086242.5268665
439229.470022929 3086242.5268665439329.470022929 3086242.5268665
439429.470022929 3086242.5268665439529.470022929 3086242.5268665
439629.470022929 3086242.5268665439729.470022929 3086242.5268665
439829.470022929 3086242.5268665439929.470022929 3086242.5268665
440029.470022929 3086242.5268665440129.470022929 3086242.5268665
440229.470022929 3086242.5268665440329.470022929 3086242.5268665
440429.470022929 3086242.5268665440529.470022929 3086242.5268665
440629.470022929 3086242.5268665440729.470022929 3086242.5268665
440829.470022929 3086242.5268665440929.470022929 3086242.5268665
441029.470022929 3086242.5268665441129.470022929 3086242.5268665
441229.470022929 3086242.5268665433129.470022929 3086142.5268665
433229.470022929 3086142.5268665433329.470022929 3086142.5268665
433429.470022929 3086142.5268665433529.470022929 3086142.5268665
433629.470022929 3086142.5268665433729.470022929 3086142.5268665
433829.470022929 3086142.5268665433929.470022929 3086142.5268665
434029.470022929 3086142.5268665434129.470022929 3086142.5268665
434229.470022929 3086142.5268665434329.470022929 3086142.5268665
434429.470022929 3086142.5268665434529.470022929 3086142.5268665
434629.470022929 3086142.5268665434729.470022929 3086142.5268665
434829.470022929 3086142.5268665434929.470022929 3086142.5268665
435029.470022929 3086142.5268665435129.470022929 3086142.5268665
435229.470022929 3086142.5268665435329.470022929 3086142.5268665
435429.470022929 3086142.5268665435529.470022929 3086142.5268665
435629.470022929 3086142.5268665435729.470022929 3086142.5268665
435829.470022929 3086142.5268665435929.470022929 3086142.5268665
436029.470022929 3086142.5268665436129.470022929 3086142.5268665
436229.470022929 3086142.5268665436329.470022929 3086142.5268665
436429.470022929 3086142.5268665436529.470022929 3086142.5268665
436629.470022929 3086142.5268665436729.470022929 3086142.5268665
436829.470022929 3086142.5268665436929.470022929 3086142.5268665
437029.470022929 3086142.5268665437129.470022929 3086142.5268665
437229.470022929 3086142.5268665437329.470022929 3086142.5268665
437429.470022929 3086142.5268665437529.470022929 3086142.5268665
437629.470022929 3086142.5268665437729.470022929 3086142.5268665
437829.470022929 3086142.5268665437929.470022929 3086142.5268665
438029.470022929 3086142.5268665438129.470022929 3086142.5268665
438229.470022929 3086142.5268665438329.470022929 3086142.5268665
438429.470022929 3086142.5268665438529.470022929 3086142.5268665
438629.470022929 3086142.5268665438729.470022929 3086142.5268665
438829.470022929 3086142.5268665438929.470022929 3086142.5268665
439029.470022929 3086142.5268665439129.470022929 3086142.5268665
439229.470022929 3086142.5268665439329.470022929 3086142.5268665
439429.470022929 3086142.5268665439529.470022929 3086142.5268665
439629.470022929 3086142.5268665439729.470022929 3086142.5268665
439829.470022929 3086142.5268665439929.470022929 3086142.5268665
440029.470022929 3086142.5268665440129.470022929 3086142.5268665
440229.470022929 3086142.5268665440329.470022929 3086142.5268665
440429.470022929 3086142.5268665440529.470022929 3086142.5268665
440629.470022929 3086142.5268665440729.470022929 3086142.5268665
440829.470022929 3086142.5268665440929.470022929 3086142.5268665
441029.470022929 3086142.5268665441129.470022929 3086142.5268665
441229.470022929 3086142.5268665441329.470022929 3086142.5268665
433129.470022929 3086042.5268665433229.470022929 3086042.5268665
433329.470022929 3086042.5268665433429.470022929 3086042.5268665
433529.470022929 3086042.5268665433629.470022929 3086042.5268665
433729.470022929 3086042.5268665433829.470022929 3086042.5268665
433929.470022929 3086042.5268665434029.470022929 3086042.5268665
434129.470022929 3086042.5268665434229.470022929 3086042.5268665
434329.470022929 3086042.5268665434429.470022929 3086042.5268665
434529.470022929 3086042.5268665434629.470022929 3086042.5268665
434729.470022929 3086042.5268665434829.470022929 3086042.5268665
434929.470022929 3086042.5268665435029.470022929 3086042.5268665
435129.470022929 3086042.5268665435229.470022929 3086042.5268665
435329.470022929 3086042.5268665435429.470022929 3086042.5268665
435529.470022929 3086042.5268665435629.470022929 3086042.5268665
435729.470022929 3086042.5268665435829.470022929 3086042.5268665
435929.470022929 3086042.5268665436029.470022929 3086042.5268665
436129.470022929 3086042.5268665436229.470022929 3086042.5268665
436329.470022929 3086042.5268665436429.470022929 3086042.5268665