Geom Title=GLOF_Geometry
Program Version=6.70
Viewing Rectangle= 431711.435893984 , 451348.036817387 , 3088733.92503794 , 3079328.83173399 

Storage Area=Rolwaling River ,,
Storage Area Surface Line= 20 
 432627.891327243085582.31392149                
  432692.77221493088269.33933332                
436141.3483235133088306.42079685                
 438662.887843793087490.62859912                
  441332.75321823085933.20713071                
444447.5961550123084932.00761531                
446894.9727482223084227.45980817                
447306.3225035993083656.38101236                
447522.3637443253083262.98028107                
448286.8854850443082844.06425876                
448859.1712755263082181.65681183                
449718.0800325233081130.35249326                
450405.6898388363080355.35785199                
449819.2074075993079779.34832131                
 446132.099935913082522.86038225                
443652.5832942513082472.58671608                
439247.3054264733084141.25257509                
437345.0263472053085409.43862793                
435142.3874133153085542.93189665                
 432627.891327243085582.31392149                
Storage Area Type= 1 
Storage Area Area=
Storage Area Min Elev=
Storage Area Is2D=-1
Storage Area Point Generation Data=,,100,100
Storage Area 2D Points= 4186 
 433877.891327243088256.42079685 433977.891327243088256.42079685
 434077.891327243088256.42079685 434177.891327243088256.42079685
 434277.891327243088256.42079685 434377.891327243088256.42079685
 434477.891327243088256.42079685 434577.891327243088256.42079685
 434677.891327243088256.42079685 434777.891327243088256.42079685
 434877.891327243088256.42079685 434977.891327243088256.42079685
 435077.891327243088256.42079685 435177.891327243088256.42079685
 435277.891327243088256.42079685 435377.891327243088256.42079685
 435477.891327243088256.42079685 435577.891327243088256.42079685
 435677.891327243088256.42079685 435777.891327243088256.42079685
 435877.891327243088256.42079685 435977.891327243088256.42079685
 436077.891327243088256.42079685 436177.891327243088256.42079685
 432777.891327243088156.42079685 432877.891327243088156.42079685
 432977.891327243088156.42079685 433077.891327243088156.42079685
 433177.891327243088156.42079685 433277.891327243088156.42079685
 433377.891327243088156.42079685 433477.891327243088156.42079685
 433577.891327243088156.42079685 433677.891327243088156.42079685
 433777.891327243088156.42079685 433877.891327243088156.42079685
 433977.891327243088156.42079685 434077.891327243088156.42079685
 434177.891327243088156.42079685 434277.891327243088156.42079685
 434377.891327243088156.42079685 434477.891327243088156.42079685
 434577.891327243088156.42079685 434677.891327243088156.42079685
 434777.891327243088156.42079685 434877.891327243088156.42079685
 434977.891327243088156.42079685 435077.891327243088156.42079685
 435177.891327243088156.42079685 435277.891327243088156.42079685
 435377.891327243088156.42079685 435477.891327243088156.42079685
 435577.891327243088156.42079685 435677.891327243088156.42079685
 435777.891327243088156.42079685 435877.891327243088156.42079685
 435977.891327243088156.42079685 436077.891327243088156.42079685
 436177.891327243088156.42079685 436277.891327243088156.42079685
 436377.891327243088156.42079685 436477.891327243088156.42079685
 432777.891327243088056.42079685 432877.891327243088056.42079685
 432977.891327243088056.42079685 433077.891327243088056.42079685
 433177.891327243088056.42079685 433277.891327243088056.42079685
 433377.891327243088056.42079685 433477.891327243088056.42079685
 433577.891327243088056.42079685 433677.891327243088056.42079685
 433777.891327243088056.42079685 433877.891327243088056.42079685
 433977.891327243088056.42079685 434077.891327243088056.42079685
 434177.891327243088056.42079685 434277.891327243088056.42079685
 434377.891327243088056.42079685 434477.891327243088056.42079685
 434577.891327243088056.42079685 434677.891327243088056.42079685
 434777.891327243088056.42079685 434877.891327243088056.42079685
 434977.891327243088056.42079685 435077.891327243088056.42079685
 435177.891327243088056.42079685 435277.891327243088056.42079685
 435377.891327243088056.42079685 435477.891327243088056.42079685
 435577.891327243088056.42079685 435677.891327243088056.42079685
 435777.891327243088056.42079685 435877.891327243088056.42079685
 435977.891327243088056.42079685 436077.891327243088056.42079685
 436177.891327243088056.42079685 436277.891327243088056.42079685
 436377.891327243088056.42079685 436477.891327243088056.42079685
 436577.891327243088056.42079685 436677.891327243088056.42079685
 436777.891327243088056.42079685 432777.891327243087956.42079685
 432877.891327243087956.42079685 432977.891327243087956.42079685
 433077.891327243087956.42079685 433177.891327243087956.42079685
 433277.891327243087956.42079685 433377.891327243087956.42079685
 433477.891327243087956.42079685 433577.891327243087956.42079685
 433677.891327243087956.42079685 433777.891327243087956.42079685
 433877.891327243087956.42079685 433977.891327243087956.42079685
 434077.891327243087956.42079685 434177.891327243087956.42079685
 434277.891327243087956.42079685 434377.891327243087956.42079685
 434477.891327243087956.42079685 434577.891327243087956.42079685
 434677.891327243087956.42079685 434777.891327243087956.42079685
 434877.891327243087956.42079685 434977.891327243087956.42079685
 435077.891327243087956.42079685 435177.891327243087956.42079685
 435277.891327243087956.42079685 435377.891327243087956.42079685
 435477.891327243087956.42079685 435577.891327243087956.42079685
 435677.891327243087956.42079685 435777.891327243087956.42079685
 435877.891327243087956.42079685 435977.891327243087956.42079685
 436077.891327243087956.42079685 436177.891327243087956.42079685
 436277.891327243087956.42079685 436377.891327243087956.42079685
 436477.891327243087956.42079685 436577.891327243087956.42079685
 436677.891327243087956.42079685 436777.891327243087956.42079685
 436877.891327243087956.42079685 436977.891327243087956.42079685
 437077.891327243087956.42079685 432777.891327243087856.42079685
 432877.891327243087856.42079685 432977.891327243087856.42079685
 433077.891327243087856.42079685 433177.891327243087856.42079685
 433277.891327243087856.42079685 433377.891327243087856.42079685
 433477.891327243087856.42079685 433577.891327243087856.42079685
 433677.891327243087856.42079685 433777.891327243087856.42079685
 433877.891327243087856.42079685 433977.891327243087856.42079685
 434077.891327243087856.42079685 434177.891327243087856.42079685
 434277.891327243087856.42079685 434377.891327243087856.42079685
 434477.891327243087856.42079685 434577.891327243087856.42079685
 434677.891327243087856.42079685 434777.891327243087856.42079685
 434877.891327243087856.42079685 434977.891327243087856.42079685
 435077.891327243087856.42079685 435177.891327243087856.42079685
 435277.891327243087856.42079685 435377.891327243087856.42079685
 435477.891327243087856.42079685 435577.891327243087856.42079685
 435677.891327243087856.42079685 435777.891327243087856.42079685
 435877.891327243087856.42079685 435977.891327243087856.42079685
 436077.891327243087856.42079685 436177.891327243087856.42079685
 436277.891327243087856.42079685 436377.891327243087856.42079685
 436477.891327243087856.42079685 436577.891327243087856.42079685
 436677.891327243087856.42079685 436777.891327243087856.42079685
 436877.891327243087856.42079685 436977.891327243087856.42079685
 437077.891327243087856.42079685 437177.891327243087856.42079685
 437277.891327243087856.42079685 437377.891327243087856.42079685
 432777.891327243087756.42079685 432877.891327243087756.42079685
 432977.891327243087756.42079685 433077.891327243087756.42079685
 433177.891327243087756.42079685 433277.891327243087756.42079685
 433377.891327243087756.42079685 433477.891327243087756.42079685
 433577.891327243087756.42079685 433677.891327243087756.42079685
 433777.891327243087756.42079685 433877.891327243087756.42079685
 433977.891327243087756.42079685 434077.891327243087756.42079685
 434177.891327243087756.42079685 434277.891327243087756.42079685
 434377.891327243087756.42079685 434477.891327243087756.42079685
 434577.891327243087756.42079685 434677.891327243087756.42079685
 434777.891327243087756.42079685 434877.891327243087756.42079685
 434977.891327243087756.42079685 435077.891327243087756.42079685
 435177.891327243087756.42079685 435277.891327243087756.42079685
 435377.891327243087756.42079685 435477.891327243087756.42079685
 435577.891327243087756.42079685 435677.891327243087756.42079685
 435777.891327243087756.42079685 435877.891327243087756.42079685
 435977.891327243087756.42079685 436077.891327243087756.42079685
 436177.891327243087756.42079685 436277.891327243087756.42079685
 436377.891327243087756.42079685 436477.891327243087756.42079685
 436577.891327243087756.42079685 436677.891327243087756.42079685
 436777.891327243087756.42079685 436877.891327243087756.42079685
 436977.891327243087756.42079685 437077.891327243087756.42079685
 437177.891327243087756.42079685 437277.891327243087756.42079685
 437377.891327243087756.42079685 437477.891327243087756.42079685
 437577.891327243087756.42079685 437677.891327243087756.42079685
 432777.891327243087656.42079685 432877.891327243087656.42079685
 432977.891327243087656.42079685 433077.891327243087656.42079685
 433177.891327243087656.42079685 433277.891327243087656.42079685
 433377.891327243087656.42079685 433477.891327243087656.42079685
 433577.891327243087656.42079685 433677.891327243087656.42079685
 433777.891327243087656.42079685 433877.891327243087656.42079685
 433977.891327243087656.42079685 434077.891327243087656.42079685
 434177.891327243087656.42079685 434277.891327243087656.42079685
 434377.891327243087656.42079685 434477.891327243087656.42079685
 434577.891327243087656.42079685 434677.891327243087656.42079685
 434777.891327243087656.42079685 434877.891327243087656.42079685
 434977.891327243087656.42079685 435077.891327243087656.42079685
 435177.891327243087656.42079685 435277.891327243087656.42079685
 435377.891327243087656.42079685 435477.891327243087656.42079685
 435577.891327243087656.42079685 435677.891327243087656.42079685
 435777.891327243087656.42079685 435877.891327243087656.42079685
 435977.891327243087656.42079685 436077.891327243087656.42079685
 436177.891327243087656.42079685 436277.891327243087656.42079685
 436377.891327243087656.42079685 436477.891327243087656.42079685
 436577.891327243087656.42079685 436677.891327243087656.42079685
 436777.891327243087656.42079685 436877.891327243087656.42079685
 436977.891327243087656.42079685 437077.891327243087656.42079685
 437177.891327243087656.42079685 437277.891327243087656.42079685
 437377.891327243087656.42079685 437477.891327243087656.42079685
 437577.891327243087656.42079685 437677.891327243087656.42079685
 437777.891327243087656.42079685 437877.891327243087656.42079685
 437977.891327243087656.42079685 432777.891327243087556.42079685
 432877.891327243087556.42079685 432977.891327243087556.42079685
 433077.891327243087556.42079685 433177.891327243087556.42079685
 433277.891327243087556.42079685 433377.891327243087556.42079685
 433477.891327243087556.42079685 433577.891327243087556.42079685
 433677.891327243087556.42079685 433777.891327243087556.42079685
 433877.891327243087556.42079685 433977.891327243087556.42079685
 434077.891327243087556.42079685 434177.891327243087556.42079685
 434277.891327243087556.42079685 434377.891327243087556.42079685
 434477.891327243087556.42079685 434577.891327243087556.42079685
 434677.891327243087556.42079685 434777.891327243087556.42079685
 434877.891327243087556.42079685 434977.891327243087556.42079685
 435077.891327243087556.42079685 435177.891327243087556.42079685
 435277.891327243087556.42079685 435377.891327243087556.42079685
 435477.891327243087556.42079685 435577.891327243087556.42079685
 435677.891327243087556.42079685 435777.891327243087556.42079685
 435877.891327243087556.42079685 435977.891327243087556.42079685
 436077.891327243087556.42079685 436177.891327243087556.42079685
 436277.891327243087556.42079685 436377.891327243087556.42079685
 436477.891327243087556.42079685 436577.891327243087556.42079685
 436677.891327243087556.42079685 436777.891327243087556.42079685
 436877.891327243087556.42079685 436977.891327243087556.42079685
 437077.891327243087556.42079685 437177.891327243087556.42079685
 437277.891327243087556.42079685 437377.891327243087556.42079685
 437477.891327243087556.42079685 437577.891327243087556.42079685
 437677.891327243087556.42079685 437777.891327243087556.42079685
 437877.891327243087556.42079685 437977.891327243087556.42079685
 438077.891327243087556.42079685 438177.891327243087556.42079685
 438277.891327243087556.42079685 438377.891327243087556.42079685
 432777.891327243087456.42079685 432877.891327243087456.42079685
 432977.891327243087456.42079685 433077.891327243087456.42079685
 433177.891327243087456.42079685 433277.891327243087456.42079685
 433377.891327243087456.42079685 433477.891327243087456.42079685
 433577.891327243087456.42079685 433677.891327243087456.42079685
 433777.891327243087456.42079685 433877.891327243087456.42079685
 433977.891327243087456.42079685 434077.891327243087456.42079685
 434177.891327243087456.42079685 434277.891327243087456.42079685
 434377.891327243087456.42079685 434477.891327243087456.42079685
 434577.891327243087456.42079685 434677.891327243087456.42079685
 434777.891327243087456.42079685 434877.891327243087456.42079685
 434977.891327243087456.42079685 435077.891327243087456.42079685
 435177.891327243087456.42079685 435277.891327243087456.42079685
 435377.891327243087456.42079685 435477.891327243087456.42079685
 435577.891327243087456.42079685 435677.891327243087456.42079685
 435777.891327243087456.42079685 435877.891327243087456.42079685
 435977.891327243087456.42079685 436077.891327243087456.42079685
 436177.891327243087456.42079685 436277.891327243087456.42079685
 436377.891327243087456.42079685 436477.891327243087456.42079685
 436577.891327243087456.42079685 436677.891327243087456.42079685
 436777.891327243087456.42079685 436877.891327243087456.42079685
 436977.891327243087456.42079685 437077.891327243087456.42079685
 437177.891327243087456.42079685 437277.891327243087456.42079685
 437377.891327243087456.42079685 437477.891327243087456.42079685
 437577.891327243087456.42079685 437677.891327243087456.42079685
 437777.891327243087456.42079685 437877.891327243087456.42079685
 437977.891327243087456.42079685 438077.891327243087456.42079685
 438177.891327243087456.42079685 438277.891327243087456.42079685
 438377.891327243087456.42079685 438477.891327243087456.42079685
 438577.891327243087456.42079685 432777.891327243087356.42079685
 432877.891327243087356.42079685 432977.891327243087356.42079685
 433077.891327243087356.42079685 433177.891327243087356.42079685
 433277.891327243087356.42079685 433377.891327243087356.42079685
 433477.891327243087356.42079685 433577.891327243087356.42079685
 433677.891327243087356.42079685 433777.891327243087356.42079685
 433877.891327243087356.42079685 433977.891327243087356.42079685
 434077.891327243087356.42079685 434177.891327243087356.42079685
 434277.891327243087356.42079685 434377.891327243087356.42079685
 434477.891327243087356.42079685 434577.891327243087356.42079685
 434677.891327243087356.42079685 434777.891327243087356.42079685
 434877.891327243087356.42079685 434977.891327243087356.42079685
 435077.891327243087356.42079685 435177.891327243087356.42079685
 435277.891327243087356.42079685 435377.891327243087356.42079685
 435477.891327243087356.42079685 435577.891327243087356.42079685
 435677.891327243087356.42079685 435777.891327243087356.42079685
 435877.891327243087356.42079685 435977.891327243087356.42079685
 436077.891327243087356.42079685 436177.891327243087356.42079685
 436277.891327243087356.42079685 436377.891327243087356.42079685
 436477.891327243087356.42079685 436577.891327243087356.42079685
 436677.891327243087356.42079685 436777.891327243087356.42079685
 436877.891327243087356.42079685 436977.891327243087356.42079685
 437077.891327243087356.42079685 437177.891327243087356.42079685
 437277.891327243087356.42079685 437377.891327243087356.42079685
 437477.891327243087356.42079685 437577.891327243087356.42079685
 437677.891327243087356.42079685 437777.891327243087356.42079685
 437877.891327243087356.42079685 437977.891327243087356.42079685
 438077.891327243087356.42079685 438177.891327243087356.42079685
 438277.891327243087356.42079685 438377.891327243087356.42079685
 438477.891327243087356.42079685 438577.891327243087356.42079685
 438677.891327243087356.42079685 438777.891327243087356.42079685
 432777.891327243087256.42079685 432877.891327243087256.42079685
 432977.891327243087256.42079685 433077.891327243087256.42079685
 433177.891327243087256.42079685 433277.891327243087256.42079685
 433377.891327243087256.42079685 433477.891327243087256.42079685
 433577.891327243087256.42079685 433677.891327243087256.42079685
 433777.891327243087256.42079685 433877.891327243087256.42079685
 433977.891327243087256.42079685 434077.891327243087256.42079685
 434177.891327243087256.42079685 434277.891327243087256.42079685
 434377.891327243087256.42079685 434477.891327243087256.42079685
 434577.891327243087256.42079685 434677.891327243087256.42079685
 434777.891327243087256.42079685 434877.891327243087256.42079685
 434977.891327243087256.42079685 435077.891327243087256.42079685
 435177.891327243087256.42079685 435277.891327243087256.42079685
 435377.891327243087256.42079685 435477.891327243087256.42079685
 435577.891327243087256.42079685 435677.891327243087256.42079685
 435777.891327243087256.42079685 435877.891327243087256.42079685
 435977.891327243087256.42079685 436077.891327243087256.42079685
 436177.891327243087256.42079685 436277.891327243087256.42079685
 436377.891327243087256.42079685 436477.891327243087256.42079685
 436577.891327243087256.42079685 436677.891327243087256.42079685
 436777.891327243087256.42079685 436877.891327243087256.42079685
 436977.891327243087256.42079685 437077.891327243087256.42079685
 437177.891327243087256.42079685 437277.891327243087256.42079685
 437377.891327243087256.42079685 437477.891327243087256.42079685
 437577.891327243087256.42079685 437677.891327243087256.42079685
 437777.891327243087256.42079685 437877.891327243087256.42079685
 437977.891327243087256.42079685 438077.891327243087256.42079685
 438177.891327243087256.42079685 438277.891327243087256.42079685
 438377.891327243087256.42079685 438477.891327243087256.42079685
 438577.891327243087256.42079685 438677.891327243087256.42079685
 438777.891327243087256.42079685 438877.891327243087256.42079685
 438977.891327243087256.42079685 432777.891327243087156.42079685
 432877.891327243087156.42079685 432977.891327243087156.42079685
 433077.891327243087156.42079685 433177.891327243087156.42079685
 433277.891327243087156.42079685 433377.891327243087156.42079685
 433477.891327243087156.42079685 433577.891327243087156.42079685
 433677.891327243087156.42079685 433777.891327243087156.42079685
 433877.891327243087156.42079685 433977.891327243087156.42079685
 434077.891327243087156.42079685 434177.891327243087156.42079685
 434277.891327243087156.42079685 434377.891327243087156.42079685
 434477.891327243087156.42079685 434577.891327243087156.42079685
 434677.891327243087156.42079685 434777.891327243087156.42079685
 434877.891327243087156.42079685 434977.891327243087156.42079685
 435077.891327243087156.42079685 435177.891327243087156.42079685
 435277.891327243087156.42079685 435377.891327243087156.42079685
 435477.891327243087156.42079685 435577.891327243087156.42079685
 435677.891327243087156.42079685 435777.891327243087156.42079685
 435877.891327243087156.42079685 435977.891327243087156.42079685
 436077.891327243087156.42079685 436177.891327243087156.42079685
 436277.891327243087156.42079685 436377.891327243087156.42079685
 436477.891327243087156.42079685 436577.891327243087156.42079685
 436677.891327243087156.42079685 436777.891327243087156.42079685
 436877.891327243087156.42079685 436977.891327243087156.42079685
 437077.891327243087156.42079685 437177.891327243087156.42079685
 437277.891327243087156.42079685 437377.891327243087156.42079685
 437477.891327243087156.42079685 437577.891327243087156.42079685
 437677.891327243087156.42079685 437777.891327243087156.42079685
 437877.891327243087156.42079685 437977.891327243087156.42079685
 438077.891327243087156.42079685 438177.891327243087156.42079685
 438277.891327243087156.42079685 438377.891327243087156.42079685
 438477.891327243087156.42079685 438577.891327243087156.42079685
 438677.891327243087156.42079685 438777.891327243087156.42079685
 438877.891327243087156.42079685 438977.891327243087156.42079685
 439077.891327243087156.42079685 439177.891327243087156.42079685
 432777.891327243087056.42079685 432877.891327243087056.42079685
 432977.891327243087056.42079685 433077.891327243087056.42079685
 433177.891327243087056.42079685 433277.891327243087056.42079685
 433377.891327243087056.42079685 433477.891327243087056.42079685
 433577.891327243087056.42079685 433677.891327243087056.42079685
 433777.891327243087056.42079685 433877.891327243087056.42079685
 433977.891327243087056.42079685 434077.891327243087056.42079685
 434177.891327243087056.42079685 434277.891327243087056.42079685
 434377.891327243087056.42079685 434477.891327243087056.42079685
 434577.891327243087056.42079685 434677.891327243087056.42079685
 434777.891327243087056.42079685 434877.891327243087056.42079685
 434977.891327243087056.42079685 435077.891327243087056.42079685
 435177.891327243087056.42079685 435277.891327243087056.42079685
 435377.891327243087056.42079685 435477.891327243087056.42079685
 435577.891327243087056.42079685 435677.891327243087056.42079685
 435777.891327243087056.42079685 435877.891327243087056.42079685
 435977.891327243087056.42079685 436077.891327243087056.42079685
 436177.891327243087056.42079685 436277.891327243087056.42079685
 436377.891327243087056.42079685 436477.891327243087056.42079685
 436577.891327243087056.42079685 436677.891327243087056.42079685
 436777.891327243087056.42079685 436877.891327243087056.42079685
 436977.891327243087056.42079685 437077.891327243087056.42079685
 437177.891327243087056.42079685 437277.891327243087056.42079685
 437377.891327243087056.42079685 437477.891327243087056.42079685
 437577.891327243087056.42079685 437677.891327243087056.42079685
 437777.891327243087056.42079685 437877.891327243087056.42079685
 437977.891327243087056.42079685 438077.891327243087056.42079685
 438177.891327243087056.42079685 438277.891327243087056.42079685
 438377.891327243087056.42079685 438477.891327243087056.42079685
 438577.891327243087056.42079685 438677.891327243087056.42079685
 438777.891327243087056.42079685 438877.891327243087056.42079685
 438977.891327243087056.42079685 439077.891327243087056.42079685
 439177.891327243087056.42079685 439277.891327243087056.42079685
 432777.891327243086956.42079685 432877.891327243086956.42079685
 432977.891327243086956.42079685 433077.891327243086956.42079685
 433177.891327243086956.42079685 433277.891327243086956.42079685
 433377.891327243086956.42079685 433477.891327243086956.42079685
 433577.891327243086956.42079685 433677.891327243086956.42079685
 433777.891327243086956.42079685 433877.891327243086956.42079685
 433977.891327243086956.42079685 434077.891327243086956.42079685
 434177.891327243086956.42079685 434277.891327243086956.42079685
 434377.891327243086956.42079685 434477.891327243086956.42079685
 434577.891327243086956.42079685 434677.891327243086956.42079685
 434777.891327243086956.42079685 434877.891327243086956.42079685
 434977.891327243086956.42079685 435077.891327243086956.42079685
 435177.891327243086956.42079685 435277.891327243086956.42079685
 435377.891327243086956.42079685 435477.891327243086956.42079685
 435577.891327243086956.42079685 435677.891327243086956.42079685
 435777.891327243086956.42079685 435877.891327243086956.42079685
 435977.891327243086956.42079685 436077.891327243086956.42079685
 436177.891327243086956.42079685 436277.891327243086956.42079685
 436377.891327243086956.42079685 436477.891327243086956.42079685
 436577.891327243086956.42079685 436677.891327243086956.42079685
 436777.891327243086956.42079685 436877.891327243086956.42079685
 436977.891327243086956.42079685 437077.891327243086956.42079685
 437177.891327243086956.42079685 437277.891327243086956.42079685
 437377.891327243086956.42079685 437477.891327243086956.42079685
 437577.891327243086956.42079685 437677.891327243086956.42079685
 437777.891327243086956.42079685 437877.891327243086956.42079685
 437977.891327243086956.42079685 438077.891327243086956.42079685
 438177.891327243086956.42079685 438277.891327243086956.42079685
 438377.891327243086956.42079685 438477.891327243086956.42079685
 438577.891327243086956.42079685 438677.891327243086956.42079685
 438777.891327243086956.42079685 438877.891327243086956.42079685
 438977.891327243086956.42079685 439077.891327243086956.42079685
 439177.891327243086956.42079685 439277.891327243086956.42079685
 439377.891327243086956.42079685 439477.891327243086956.42079685
 432777.891327243086856.42079685 432877.891327243086856.42079685
 432977.891327243086856.42079685 433077.891327243086856.42079685
 433177.891327243086856.42079685 433277.891327243086856.42079685
 433377.891327243086856.42079685 433477.891327243086856.42079685
 433577.891327243086856.42079685 433677.891327243086856.42079685
 433777.891327243086856.42079685 433877.891327243086856.42079685
 433977.891327243086856.42079685 434077.891327243086856.42079685
 434177.891327243086856.42079685 434277.891327243086856.42079685
 434377.891327243086856.42079685 434477.891327243086856.42079685
 434577.891327243086856.42079685 434677.891327243086856.42079685
 434777.891327243086856.42079685 434877.891327243086856.42079685
 434977.891327243086856.42079685 435077.891327243086856.42079685
 435177.891327243086856.42079685 435277.891327243086856.42079685
 435377.891327243086856.42079685 435477.891327243086856.42079685
 435577.891327243086856.42079685 435677.891327243086856.42079685
 435777.891327243086856.42079685 435877.891327243086856.42079685
 435977.891327243086856.42079685 436077.891327243086856.42079685
 436177.891327243086856.42079685 436277.891327243086856.42079685
 436377.891327243086856.42079685 436477.891327243086856.42079685
 436577.891327243086856.42079685 436677.891327243086856.42079685
 436777.891327243086856.42079685 436877.891327243086856.42079685
 436977.891327243086856.42079685 437077.891327243086856.42079685
 437177.891327243086856.42079685 437277.891327243086856.42079685
 437377.891327243086856.42079685 437477.891327243086856.42079685
 437577.891327243086856.42079685 437677.891327243086856.42079685
 437777.891327243086856.42079685 437877.891327243086856.42079685
 437977.891327243086856.42079685 438077.891327243086856.42079685
 438177.891327243086856.42079685 438277.891327243086856.42079685
 438377.891327243086856.42079685 438477.891327243086856.42079685
 438577.891327243086856.42079685 438677.891327243086856.42079685
 438777.891327243086856.42079685 438877.891327243086856.42079685
 438977.891327243086856.42079685 439077.891327243086856.42079685
 439177.891327243086856.42079685 439277.891327243086856.42079685
 439377.891327243086856.42079685 439477.891327243086856.42079685
 439577.891327243086856.42079685 439677.891327243086856.42079685
 432777.891327243086756.42079685 432877.891327243086756.42079685
 432977.891327243086756.42079685 433077.891327243086756.42079685
 433177.891327243086756.42079685 433277.891327243086756.42079685
 433377.891327243086756.42079685 433477.891327243086756.42079685
 433577.891327243086756.42079685 433677.891327243086756.42079685
 433777.891327243086756.42079685 433877.891327243086756.42079685
 433977.891327243086756.42079685 434077.891327243086756.42079685
 434177.891327243086756.42079685 434277.891327243086756.42079685
 434377.891327243086756.42079685 434477.891327243086756.42079685
 434577.891327243086756.42079685 434677.891327243086756.42079685
 434777.891327243086756.42079685 434877.891327243086756.42079685
 434977.891327243086756.42079685 435077.891327243086756.42079685
 435177.891327243086756.42079685 435277.891327243086756.42079685
 435377.891327243086756.42079685 435477.891327243086756.42079685
 435577.891327243086756.42079685 435677.891327243086756.42079685
 435777.891327243086756.42079685 435877.891327243086756.42079685
 435977.891327243086756.42079685 436077.891327243086756.42079685
 436177.891327243086756.42079685 436277.891327243086756.42079685
 436377.891327243086756.42079685 436477.891327243086756.42079685
 436577.891327243086756.42079685 436677.891327243086756.42079685
 436777.891327243086756.42079685 436877.891327243086756.42079685
 436977.891327243086756.42079685 437077.891327243086756.42079685
 437177.891327243086756.42079685 437277.891327243086756.42079685
 437377.891327243086756.42079685 437477.891327243086756.42079685
 437577.891327243086756.42079685 437677.891327243086756.42079685
 437777.891327243086756.42079685 437877.891327243086756.42079685
 437977.891327243086756.42079685 438077.891327243086756.42079685
 438177.891327243086756.42079685 438277.891327243086756.42079685
 438377.891327243086756.42079685 438477.891327243086756.42079685
 438577.891327243086756.42079685 438677.891327243086756.42079685
 438777.891327243086756.42079685 438877.891327243086756.42079685
 438977.891327243086756.42079685 439077.891327243086756.42079685
 439177.891327243086756.42079685 439277.891327243086756.42079685
 439377.891327243086756.42079685 439477.891327243086756.42079685
 439577.891327243086756.42079685 439677.891327243086756.42079685
 439777.891327243086756.42079685 432777.891327243086656.42079685
 432877.891327243086656.42079685 432977.891327243086656.42079685